# A junk CIF file I found a while back
data_I
_chemical_name_common ''
_cell_length_a 62.8399
_cell_length_b 62.8399
_cell_length_c 62.8399
_cell_angle_alpha 60
_cell_angle_beta 60
_cell_angle_gamma 60
loop_
    _symmetry_equiv_pos_as_xyz
    'x,y,z'
    'y,x,1/2-x-y-z'
    'z,1/2-x-y-z,x'
    '1/2-x-y-z,z,y'
    'z,x,y'
    '1/2-x-y-z,y,x'
    'x,z,1/2-x-y-z'
    'y,1/2-x-y-z,z'
    'y,z,x'
    'x,1/2-x-y-z,y'
    '1/2-x-y-z,x,z'
    'z,y,1/2-x-y-z'
    '-x,-y,1/2+x+y+z'
    '-y,-x,-z'
    '-z,1/2+x+y+z,-y'
    '1/2+x+y+z,-z,-x'
    '-z,-x,1/2+x+y+z'
    '1/2+x+y+z,-y,-z'
    '-x,-z,-y'
    '-y,1/2+x+y+z,-x'
    '-y,-z,1/2+x+y+z'
    '-x,1/2+x+y+z,-z'
    '1/2+x+y+z,-x,-y'
    '-z,-y,-x'
    '-x,-y,-z'
    '-y,-x,1/2+x+y+z'
    '-z,1/2+x+y+z,-x'
    '1/2+x+y+z,-z,-y'
    '-z,-x,-y'
    '1/2+x+y+z,-y,-x'
    '-x,-z,1/2+x+y+z'
    '-y,1/2+x+y+z,-z'
    '-y,-z,-x'
    '-x,1/2+x+y+z,-y'
    '1/2+x+y+z,-x,-z'
    '-z,-y,1/2+x+y+z'
    'x,y,1/2-x-y-z'
    'y,x,z'
    'z,1/2-x-y-z,y'
    '1/2-x-y-z,z,x'
    'z,x,1/2-x-y-z'
    '1/2-x-y-z,y,z'
    'x,z,y'
    'y,1/2-x-y-z,x'
    'y,z,1/2-x-y-z'
    'x,1/2-x-y-z,z'
    '1/2-x-y-z,x,y'
    'z,y,x'
loop_
    _atom_site_label
    _atom_site_type_symbol
    _atom_site_fract_x
    _atom_site_fract_y
    _atom_site_fract_z
    _atom_site_occupancy
    Cr1     Cr   0.34154   0.68043   0.51071   1.000
    Cr2     Cr   0.68043   0.34154   0.96732   1.000
    Cr3     Cr   0.51071   0.96732   0.34154   1.000
    Cr4     Cr   0.96732   0.51071   0.68043   1.000
    Cr5     Cr   0.51071   0.34154   0.68043   1.000
    Cr6     Cr   0.96732   0.68043   0.34154   1.000
    Cr7     Cr   0.34154   0.51071   0.96732   1.000
    Cr8     Cr   0.68043   0.96732   0.51071   1.000
    Cr9     Cr   0.68043   0.51071   0.34154   1.000
    Cr10    Cr   0.34154   0.96732   0.68043   1.000
    Cr11    Cr   0.96732   0.34154   0.51071   1.000
    Cr12    Cr   0.51071   0.68043   0.96732   1.000
    Cr13    Cr   0.65846   0.31957   0.03268   1.000
    Cr14    Cr   0.31957   0.65846   0.48929   1.000
    Cr15    Cr   0.48929   0.03268   0.31957   1.000
    Cr16    Cr   0.03268   0.48929   0.65846   1.000
    Cr17    Cr   0.48929   0.65846   0.03268   1.000
    Cr18    Cr   0.03268   0.31957   0.48929   1.000
    Cr19    Cr   0.65846   0.48929   0.31957   1.000
    Cr20    Cr   0.31957   0.03268   0.65846   1.000
    Cr21    Cr   0.31957   0.48929   0.03268   1.000
    Cr22    Cr   0.65846   0.03268   0.48929   1.000
    Cr23    Cr   0.03268   0.65846   0.31957   1.000
    Cr24    Cr   0.48929   0.31957   0.65846   1.000
    Cr25    Cr   0.65846   0.31957   0.48929   1.000
    Cr26    Cr   0.31957   0.65846   0.03268   1.000
    Cr27    Cr   0.48929   0.03268   0.65846   1.000
    Cr28    Cr   0.03268   0.48929   0.31957   1.000
    Cr29    Cr   0.48929   0.65846   0.31957   1.000
    Cr30    Cr   0.03268   0.31957   0.65846   1.000
    Cr31    Cr   0.65846   0.48929   0.03268   1.000
    Cr32    Cr   0.31957   0.03268   0.48929   1.000
    Cr33    Cr   0.31957   0.48929   0.65846   1.000
    Cr34    Cr   0.65846   0.03268   0.31957   1.000
    Cr35    Cr   0.03268   0.65846   0.48929   1.000
    Cr36    Cr   0.48929   0.31957   0.03268   1.000
    Cr37    Cr   0.34154   0.68043   0.96732   1.000
    Cr38    Cr   0.68043   0.34154   0.51071   1.000
    Cr39    Cr   0.51071   0.96732   0.68043   1.000
    Cr40    Cr   0.96732   0.51071   0.34154   1.000
    Cr41    Cr   0.51071   0.34154   0.96732   1.000
    Cr42    Cr   0.96732   0.68043   0.51071   1.000
    Cr43    Cr   0.34154   0.51071   0.68043   1.000
    Cr44    Cr   0.68043   0.96732   0.34154   1.000
    Cr45    Cr   0.68043   0.51071   0.96732   1.000
    Cr46    Cr   0.34154   0.96732   0.51071   1.000
    Cr47    Cr   0.96732   0.34154   0.68043   1.000
    Cr48    Cr   0.51071   0.68043   0.34154   1.000
    Cr49    Cr   0.26566   0.82043   0.31873   1.000
    Cr50    Cr   0.82043   0.26566   0.09518   1.000
    Cr51    Cr   0.31873   0.09518   0.26566   1.000
    Cr52    Cr   0.09518   0.31873   0.82043   1.000
    Cr53    Cr   0.31873   0.26566   0.82043   1.000
    Cr54    Cr   0.09518   0.82043   0.26566   1.000
    Cr55    Cr   0.26566   0.31873   0.09518   1.000
    Cr56    Cr   0.82043   0.09518   0.31873   1.000
    Cr57    Cr   0.82043   0.31873   0.26566   1.000
    Cr58    Cr   0.26566   0.09518   0.82043   1.000
    Cr59    Cr   0.09518   0.26566   0.31873   1.000
    Cr60    Cr   0.31873   0.82043   0.09518   1.000
    Cr61    Cr   0.73434   0.17957   0.90482   1.000
    Cr62    Cr   0.17957   0.73434   0.68127   1.000
    Cr63    Cr   0.68127   0.90482   0.17957   1.000
    Cr64    Cr   0.90482   0.68127   0.73434   1.000
    Cr65    Cr   0.68127   0.73434   0.90482   1.000
    Cr66    Cr   0.90482   0.17957   0.68127   1.000
    Cr67    Cr   0.73434   0.68127   0.17957   1.000
    Cr68    Cr   0.17957   0.90482   0.73434   1.000
    Cr69    Cr   0.17957   0.68127   0.90482   1.000
    Cr70    Cr   0.73434   0.90482   0.68127   1.000
    Cr71    Cr   0.90482   0.73434   0.17957   1.000
    Cr72    Cr   0.68127   0.17957   0.73434   1.000
    Cr73    Cr   0.73434   0.17957   0.68127   1.000
    Cr74    Cr   0.17957   0.73434   0.90482   1.000
    Cr75    Cr   0.68127   0.90482   0.73434   1.000
    Cr76    Cr   0.90482   0.68127   0.17957   1.000
    Cr77    Cr   0.68127   0.73434   0.17957   1.000
    Cr78    Cr   0.90482   0.17957   0.73434   1.000
    Cr79    Cr   0.73434   0.68127   0.90482   1.000
    Cr80    Cr   0.17957   0.90482   0.68127   1.000
    Cr81    Cr   0.17957   0.68127   0.73434   1.000
    Cr82    Cr   0.73434   0.90482   0.17957   1.000
    Cr83    Cr   0.90482   0.73434   0.68127   1.000
    Cr84    Cr   0.68127   0.17957   0.90482   1.000
    Cr85    Cr   0.26566   0.82043   0.09518   1.000
    Cr86    Cr   0.82043   0.26566   0.31873   1.000
    Cr87    Cr   0.31873   0.09518   0.82043   1.000
    Cr88    Cr   0.09518   0.31873   0.26566   1.000
    Cr89    Cr   0.31873   0.26566   0.09518   1.000
    Cr90    Cr   0.09518   0.82043   0.31873   1.000
    Cr91    Cr   0.26566   0.31873   0.82043   1.000
    Cr92    Cr   0.82043   0.09518   0.26566   1.000
    Cr93    Cr   0.82043   0.31873   0.09518   1.000
    Cr94    Cr   0.26566   0.09518   0.31873   1.000
    Cr95    Cr   0.09518   0.26566   0.82043   1.000
    Cr96    Cr   0.31873   0.82043   0.26566   1.000
    O97     O    0.16440   0.01239   0.19989   1.000
    O98     O    0.01239   0.16440   0.12332   1.000
    O99     O    0.19989   0.12332   0.16440   1.000
    O100    O    0.12332   0.19989   0.01239   1.000
    O101    O    0.19989   0.16440   0.01239   1.000
    O102    O    0.12332   0.01239   0.16440   1.000
    O103    O    0.16440   0.19989   0.12332   1.000
    O104    O    0.01239   0.12332   0.19989   1.000
    O105    O    0.01239   0.19989   0.16440   1.000
    O106    O    0.16440   0.12332   0.01239   1.000
    O107    O    0.12332   0.16440   0.19989   1.000
    O108    O    0.19989   0.01239   0.12332   1.000
    O109    O    0.83560   0.98761   0.87668   1.000
    O110    O    0.98761   0.83560   0.80011   1.000
    O111    O    0.80011   0.87668   0.98761   1.000
    O112    O    0.87668   0.80011   0.83560   1.000
    O113    O    0.80011   0.83560   0.87668   1.000
    O114    O    0.87668   0.98761   0.80011   1.000
    O115    O    0.83560   0.80011   0.98761   1.000
    O116    O    0.98761   0.87668   0.83560   1.000
    O117    O    0.98761   0.80011   0.87668   1.000
    O118    O    0.83560   0.87668   0.80011   1.000
    O119    O    0.87668   0.83560   0.98761   1.000
    O120    O    0.80011   0.98761   0.83560   1.000
    O121    O    0.83560   0.98761   0.80011   1.000
    O122    O    0.98761   0.83560   0.87668   1.000
    O123    O    0.80011   0.87668   0.83560   1.000
    O124    O    0.87668   0.80011   0.98761   1.000
    O125    O    0.80011   0.83560   0.98761   1.000
    O126    O    0.87668   0.98761   0.83560   1.000
    O127    O    0.83560   0.80011   0.87668   1.000
    O128    O    0.98761   0.87668   0.80011   1.000
    O129    O    0.98761   0.80011   0.83560   1.000
    O130    O    0.83560   0.87668   0.98761   1.000
    O131    O    0.87668   0.83560   0.80011   1.000
    O132    O    0.80011   0.98761   0.87668   1.000
    O133    O    0.16440   0.01239   0.12332   1.000
    O134    O    0.01239   0.16440   0.19989   1.000
    O135    O    0.19989   0.12332   0.01239   1.000
    O136    O    0.12332   0.19989   0.16440   1.000
    O137    O    0.19989   0.16440   0.12332   1.000
    O138    O    0.12332   0.01239   0.19989   1.000
    O139    O    0.16440   0.19989   0.01239   1.000
    O140    O    0.01239   0.12332   0.16440   1.000
    O141    O    0.01239   0.19989   0.12332   1.000
    O142    O    0.16440   0.12332   0.19989   1.000
    O143    O    0.12332   0.16440   0.01239   1.000
    O144    O    0.19989   0.01239   0.16440   1.000
    O145    O    0.25649   0.85123   0.29204   1.000
    O146    O    0.85123   0.25649   0.10024   1.000
    O147    O    0.29204   0.10024   0.25649   1.000
    O148    O    0.10024   0.29204   0.85123   1.000
    O149    O    0.29204   0.25649   0.85123   1.000
    O150    O    0.10024   0.85123   0.25649   1.000
    O151    O    0.25649   0.29204   0.10024   1.000
    O152    O    0.85123   0.10024   0.29204   1.000
    O153    O    0.85123   0.29204   0.25649   1.000
    O154    O    0.25649   0.10024   0.85123   1.000
    O155    O    0.10024   0.25649   0.29204   1.000
    O156    O    0.29204   0.85123   0.10024   1.000
    O157    O    0.74351   0.14877   0.89976   1.000
    O158    O    0.14877   0.74351   0.70796   1.000
    O159    O    0.70796   0.89976   0.14877   1.000
    O160    O    0.89976   0.70796   0.74351   1.000
    O161    O    0.70796   0.74351   0.89976   1.000
    O162    O    0.89976   0.14877   0.70796   1.000
    O163    O    0.74351   0.70796   0.14877   1.000
    O164    O    0.14877   0.89976   0.74351   1.000
    O165    O    0.14877   0.70796   0.89976   1.000
    O166    O    0.74351   0.89976   0.70796   1.000
    O167    O    0.89976   0.74351   0.14877   1.000
    O168    O    0.70796   0.14877   0.74351   1.000
    O169    O    0.74351   0.14877   0.70796   1.000
    O170    O    0.14877   0.74351   0.89976   1.000
    O171    O    0.70796   0.89976   0.74351   1.000
    O172    O    0.89976   0.70796   0.14877   1.000
    O173    O    0.70796   0.74351   0.14877   1.000
    O174    O    0.89976   0.14877   0.74351   1.000
    O175    O    0.74351   0.70796   0.89976   1.000
    O176    O    0.14877   0.89976   0.70796   1.000
    O177    O    0.14877   0.70796   0.74351   1.000
    O178    O    0.74351   0.89976   0.14877   1.000
    O179    O    0.89976   0.74351   0.70796   1.000
    O180    O    0.70796   0.14877   0.89976   1.000
    O181    O    0.25649   0.85123   0.10024   1.000
    O182    O    0.85123   0.25649   0.29204   1.000
    O183    O    0.29204   0.10024   0.85123   1.000
    O184    O    0.10024   0.29204   0.25649   1.000
    O185    O    0.29204   0.25649   0.10024   1.000
    O186    O    0.10024   0.85123   0.29204   1.000
    O187    O    0.25649   0.29204   0.85123   1.000
    O188    O    0.85123   0.10024   0.25649   1.000
    O189    O    0.85123   0.29204   0.10024   1.000
    O190    O    0.25649   0.10024   0.29204   1.000
    O191    O    0.10024   0.25649   0.85123   1.000
    O192    O    0.29204   0.85123   0.25649   1.000
    O193    O    0.18191   0.96000   0.21742   1.000
    O194    O    0.96000   0.18191   0.14067   1.000
    O195    O    0.21742   0.14067   0.18191   1.000
    O196    O    0.14067   0.21742   0.96000   1.000
    O197    O    0.21742   0.18191   0.96000   1.000
    O198    O    0.14067   0.96000   0.18191   1.000
    O199    O    0.18191   0.21742   0.14067   1.000
    O200    O    0.96000   0.14067   0.21742   1.000
    O201    O    0.96000   0.21742   0.18191   1.000
    O202    O    0.18191   0.14067   0.96000   1.000
    O203    O    0.14067   0.18191   0.21742   1.000
    O204    O    0.21742   0.96000   0.14067   1.000
    O205    O    0.81809   0.04000   0.85933   1.000
    O206    O    0.04000   0.81809   0.78258   1.000
    O207    O    0.78258   0.85933   0.04000   1.000
    O208    O    0.85933   0.78258   0.81809   1.000
    O209    O    0.78258   0.81809   0.85933   1.000
    O210    O    0.85933   0.04000   0.78258   1.000
    O211    O    0.81809   0.78258   0.04000   1.000
    O212    O    0.04000   0.85933   0.81809   1.000
    O213    O    0.04000   0.78258   0.85933   1.000
    O214    O    0.81809   0.85933   0.78258   1.000
    O215    O    0.85933   0.81809   0.04000   1.000
    O216    O    0.78258   0.04000   0.81809   1.000
    O217    O    0.81809   0.04000   0.78258   1.000
    O218    O    0.04000   0.81809   0.85933   1.000
    O219    O    0.78258   0.85933   0.81809   1.000
    O220    O    0.85933   0.78258   0.04000   1.000
    O221    O    0.78258   0.81809   0.04000   1.000
    O222    O    0.85933   0.04000   0.81809   1.000
    O223    O    0.81809   0.78258   0.85933   1.000
    O224    O    0.04000   0.85933   0.78258   1.000
    O225    O    0.04000   0.78258   0.81809   1.000
    O226    O    0.81809   0.85933   0.04000   1.000
    O227    O    0.85933   0.81809   0.78258   1.000
    O228    O    0.78258   0.04000   0.85933   1.000
    O229    O    0.18191   0.96000   0.14067   1.000
    O230    O    0.96000   0.18191   0.21742   1.000
    O231    O    0.21742   0.14067   0.96000   1.000
    O232    O    0.14067   0.21742   0.18191   1.000
    O233    O    0.21742   0.18191   0.14067   1.000
    O234    O    0.14067   0.96000   0.21742   1.000
    O235    O    0.18191   0.21742   0.96000   1.000
    O236    O    0.96000   0.14067   0.18191   1.000
    O237    O    0.96000   0.21742   0.14067   1.000
    O238    O    0.18191   0.14067   0.21742   1.000
    O239    O    0.14067   0.18191   0.96000   1.000
    O240    O    0.21742   0.96000   0.18191   1.000
    O241    O    0.24163   0.81070   0.31889   1.000
    O242    O    0.81070   0.24163   0.12878   1.000
    O243    O    0.31889   0.12878   0.24163   1.000
    O244    O    0.12878   0.31889   0.81070   1.000
    O245    O    0.31889   0.24163   0.81070   1.000
    O246    O    0.12878   0.81070   0.24163   1.000
    O247    O    0.24163   0.31889   0.12878   1.000
    O248    O    0.81070   0.12878   0.31889   1.000
    O249    O    0.81070   0.31889   0.24163   1.000
    O250    O    0.24163   0.12878   0.81070   1.000
    O251    O    0.12878   0.24163   0.31889   1.000
    O252    O    0.31889   0.81070   0.12878   1.000
    O253    O    0.75837   0.18930   0.87122   1.000
    O254    O    0.18930   0.75837   0.68111   1.000
    O255    O    0.68111   0.87122   0.18930   1.000
    O256    O    0.87122   0.68111   0.75837   1.000
    O257    O    0.68111   0.75837   0.87122   1.000
    O258    O    0.87122   0.18930   0.68111   1.000
    O259    O    0.75837   0.68111   0.18930   1.000
    O260    O    0.18930   0.87122   0.75837   1.000
    O261    O    0.18930   0.68111   0.87122   1.000
    O262    O    0.75837   0.87122   0.68111   1.000
    O263    O    0.87122   0.75837   0.18930   1.000
    O264    O    0.68111   0.18930   0.75837   1.000
    O265    O    0.75837   0.18930   0.68111   1.000
    O266    O    0.18930   0.75837   0.87122   1.000
    O267    O    0.68111   0.87122   0.75837   1.000
    O268    O    0.87122   0.68111   0.18930   1.000
    O269    O    0.68111   0.75837   0.18930   1.000
    O270    O    0.87122   0.18930   0.75837   1.000
    O271    O    0.75837   0.68111   0.87122   1.000
    O272    O    0.18930   0.87122   0.68111   1.000
    O273    O    0.18930   0.68111   0.75837   1.000
    O274    O    0.75837   0.87122   0.18930   1.000
    O275    O    0.87122   0.75837   0.68111   1.000
    O276    O    0.68111   0.18930   0.87122   1.000
    O277    O    0.24163   0.81070   0.12878   1.000
    O278    O    0.81070   0.24163   0.31889   1.000
    O279    O    0.31889   0.12878   0.81070   1.000
    O280    O    0.12878   0.31889   0.24163   1.000
    O281    O    0.31889   0.24163   0.12878   1.000
    O282    O    0.12878   0.81070   0.31889   1.000
    O283    O    0.24163   0.31889   0.81070   1.000
    O284    O    0.81070   0.12878   0.24163   1.000
    O285    O    0.81070   0.31889   0.12878   1.000
    O286    O    0.24163   0.12878   0.31889   1.000
    O287    O    0.12878   0.24163   0.81070   1.000
    O288    O    0.31889   0.81070   0.24163   1.000
    O289    O    0.30565   0.77612   0.26453   1.000
    O290    O    0.77612   0.30565   0.15370   1.000
    O291    O    0.26453   0.15370   0.30565   1.000
    O292    O    0.15370   0.26453   0.77612   1.000
    O293    O    0.26453   0.30565   0.77612   1.000
    O294    O    0.15370   0.77612   0.30565   1.000
    O295    O    0.30565   0.26453   0.15370   1.000
    O296    O    0.77612   0.15370   0.26453   1.000
    O297    O    0.77612   0.26453   0.30565   1.000
    O298    O    0.30565   0.15370   0.77612   1.000
    O299    O    0.15370   0.30565   0.26453   1.000
    O300    O    0.26453   0.77612   0.15370   1.000
    O301    O    0.69435   0.22388   0.84630   1.000
    O302    O    0.22388   0.69435   0.73547   1.000
    O303    O    0.73547   0.84630   0.22388   1.000
    O304    O    0.84630   0.73547   0.69435   1.000
    O305    O    0.73547   0.69435   0.84630   1.000
    O306    O    0.84630   0.22388   0.73547   1.000
    O307    O    0.69435   0.73547   0.22388   1.000
    O308    O    0.22388   0.84630   0.69435   1.000
    O309    O    0.22388   0.73547   0.84630   1.000
    O310    O    0.69435   0.84630   0.73547   1.000
    O311    O    0.84630   0.69435   0.22388   1.000
    O312    O    0.73547   0.22388   0.69435   1.000
    O313    O    0.69435   0.22388   0.73547   1.000
    O314    O    0.22388   0.69435   0.84630   1.000
    O315    O    0.73547   0.84630   0.69435   1.000
    O316    O    0.84630   0.73547   0.22388   1.000
    O317    O    0.73547   0.69435   0.22388   1.000
    O318    O    0.84630   0.22388   0.69435   1.000
    O319    O    0.69435   0.73547   0.84630   1.000
    O320    O    0.22388   0.84630   0.73547   1.000
    O321    O    0.22388   0.73547   0.69435   1.000
    O322    O    0.69435   0.84630   0.22388   1.000
    O323    O    0.84630   0.69435   0.73547   1.000
    O324    O    0.73547   0.22388   0.84630   1.000
    O325    O    0.30565   0.77612   0.15370   1.000
    O326    O    0.77612   0.30565   0.26453   1.000
    O327    O    0.26453   0.15370   0.77612   1.000
    O328    O    0.15370   0.26453   0.30565   1.000
    O329    O    0.26453   0.30565   0.15370   1.000
    O330    O    0.15370   0.77612   0.26453   1.000
    O331    O    0.30565   0.26453   0.77612   1.000
    O332    O    0.77612   0.15370   0.30565   1.000
    O333    O    0.77612   0.26453   0.15370   1.000
    O334    O    0.30565   0.15370   0.26453   1.000
    O335    O    0.15370   0.30565   0.77612   1.000
    O336    O    0.26453   0.77612   0.30565   1.000
    O337    O    0.36901   0.67128   0.48150   1.000
    O338    O    0.67128   0.36901   0.97821   1.000
    O339    O    0.48150   0.97821   0.36901   1.000
    O340    O    0.97821   0.48150   0.67128   1.000
    O341    O    0.48150   0.36901   0.67128   1.000
    O342    O    0.97821   0.67128   0.36901   1.000
    O343    O    0.36901   0.48150   0.97821   1.000
    O344    O    0.67128   0.97821   0.48150   1.000
    O345    O    0.67128   0.48150   0.36901   1.000
    O346    O    0.36901   0.97821   0.67128   1.000
    O347    O    0.97821   0.36901   0.48150   1.000
    O348    O    0.48150   0.67128   0.97821   1.000
    O349    O    0.63099   0.32872   0.02179   1.000
    O350    O    0.32872   0.63099   0.51850   1.000
    O351    O    0.51850   0.02179   0.32872   1.000
    O352    O    0.02179   0.51850   0.63099   1.000
    O353    O    0.51850   0.63099   0.02179   1.000
    O354    O    0.02179   0.32872   0.51850   1.000
    O355    O    0.63099   0.51850   0.32872   1.000
    O356    O    0.32872   0.02179   0.63099   1.000
    O357    O    0.32872   0.51850   0.02179   1.000
    O358    O    0.63099   0.02179   0.51850   1.000
    O359    O    0.02179   0.63099   0.32872   1.000
    O360    O    0.51850   0.32872   0.63099   1.000
    O361    O    0.63099   0.32872   0.51850   1.000
    O362    O    0.32872   0.63099   0.02179   1.000
    O363    O    0.51850   0.02179   0.63099   1.000
    O364    O    0.02179   0.51850   0.32872   1.000
    O365    O    0.51850   0.63099   0.32872   1.000
    O366    O    0.02179   0.32872   0.63099   1.000
    O367    O    0.63099   0.51850   0.02179   1.000
    O368    O    0.32872   0.02179   0.51850   1.000
    O369    O    0.32872   0.51850   0.63099   1.000
    O370    O    0.63099   0.02179   0.32872   1.000
    O371    O    0.02179   0.63099   0.51850   1.000
    O372    O    0.51850   0.32872   0.02179   1.000
    O373    O    0.36901   0.67128   0.97821   1.000
    O374    O    0.67128   0.36901   0.48150   1.000
    O375    O    0.48150   0.97821   0.67128   1.000
    O376    O    0.97821   0.48150   0.36901   1.000
    O377    O    0.48150   0.36901   0.97821   1.000
    O378    O    0.97821   0.67128   0.48150   1.000
    O379    O    0.36901   0.48150   0.67128   1.000
    O380    O    0.67128   0.97821   0.36901   1.000
    O381    O    0.67128   0.48150   0.97821   1.000
    O382    O    0.36901   0.97821   0.48150   1.000
    O383    O    0.97821   0.36901   0.67128   1.000
    O384    O    0.48150   0.67128   0.36901   1.000
    O385    O    0.34456   0.64519   0.53195   1.000
    O386    O    0.64519   0.34456   0.97830   1.000
    O387    O    0.53195   0.97830   0.34456   1.000
    O388    O    0.97830   0.53195   0.64519   1.000
    O389    O    0.53195   0.34456   0.64519   1.000
    O390    O    0.97830   0.64519   0.34456   1.000
    O391    O    0.34456   0.53195   0.97830   1.000
    O392    O    0.64519   0.97830   0.53195   1.000
    O393    O    0.64519   0.53195   0.34456   1.000
    O394    O    0.34456   0.97830   0.64519   1.000
    O395    O    0.97830   0.34456   0.53195   1.000
    O396    O    0.53195   0.64519   0.97830   1.000
    O397    O    0.65544   0.35481   0.02170   1.000
    O398    O    0.35481   0.65544   0.46805   1.000
    O399    O    0.46805   0.02170   0.35481   1.000
    O400    O    0.02170   0.46805   0.65544   1.000
    O401    O    0.46805   0.65544   0.02170   1.000
    O402    O    0.02170   0.35481   0.46805   1.000
    O403    O    0.65544   0.46805   0.35481   1.000
    O404    O    0.35481   0.02170   0.65544   1.000
    O405    O    0.35481   0.46805   0.02170   1.000
    O406    O    0.65544   0.02170   0.46805   1.000
    O407    O    0.02170   0.65544   0.35481   1.000
    O408    O    0.46805   0.35481   0.65544   1.000
    O409    O    0.65544   0.35481   0.46805   1.000
    O410    O    0.35481   0.65544   0.02170   1.000
    O411    O    0.46805   0.02170   0.65544   1.000
    O412    O    0.02170   0.46805   0.35481   1.000
    O413    O    0.46805   0.65544   0.35481   1.000
    O414    O    0.02170   0.35481   0.65544   1.000
    O415    O    0.65544   0.46805   0.02170   1.000
    O416    O    0.35481   0.02170   0.46805   1.000
    O417    O    0.35481   0.46805   0.65544   1.000
    O418    O    0.65544   0.02170   0.35481   1.000
    O419    O    0.02170   0.65544   0.46805   1.000
    O420    O    0.46805   0.35481   0.02170   1.000
    O421    O    0.34456   0.64519   0.97830   1.000
    O422    O    0.64519   0.34456   0.53195   1.000
    O423    O    0.53195   0.97830   0.64519   1.000
    O424    O    0.97830   0.53195   0.34456   1.000
    O425    O    0.53195   0.34456   0.97830   1.000
    O426    O    0.97830   0.64519   0.53195   1.000
    O427    O    0.34456   0.53195   0.64519   1.000
    O428    O    0.64519   0.97830   0.34456   1.000
    O429    O    0.64519   0.53195   0.97830   1.000
    O430    O    0.34456   0.97830   0.53195   1.000
    O431    O    0.97830   0.34456   0.64519   1.000
    O432    O    0.53195   0.64519   0.34456   1.000
    O433    O    0.34137   0.71532   0.49111   1.000
    O434    O    0.71532   0.34137   0.95220   1.000
    O435    O    0.49111   0.95220   0.34137   1.000
    O436    O    0.95220   0.49111   0.71532   1.000
    O437    O    0.49111   0.34137   0.71532   1.000
    O438    O    0.95220   0.71532   0.34137   1.000
    O439    O    0.34137   0.49111   0.95220   1.000
    O440    O    0.71532   0.95220   0.49111   1.000
    O441    O    0.71532   0.49111   0.34137   1.000
    O442    O    0.34137   0.95220   0.71532   1.000
    O443    O    0.95220   0.34137   0.49111   1.000
    O444    O    0.49111   0.71532   0.95220   1.000
    O445    O    0.65863   0.28468   0.04780   1.000
    O446    O    0.28468   0.65863   0.50889   1.000
    O447    O    0.50889   0.04780   0.28468   1.000
    O448    O    0.04780   0.50889   0.65863   1.000
    O449    O    0.50889   0.65863   0.04780   1.000
    O450    O    0.04780   0.28468   0.50889   1.000
    O451    O    0.65863   0.50889   0.28468   1.000
    O452    O    0.28468   0.04780   0.65863   1.000
    O453    O    0.28468   0.50889   0.04780   1.000
    O454    O    0.65863   0.04780   0.50889   1.000
    O455    O    0.04780   0.65863   0.28468   1.000
    O456    O    0.50889   0.28468   0.65863   1.000
    O457    O    0.65863   0.28468   0.50889   1.000
    O458    O    0.28468   0.65863   0.04780   1.000
    O459    O    0.50889   0.04780   0.65863   1.000
    O460    O    0.04780   0.50889   0.28468   1.000
    O461    O    0.50889   0.65863   0.28468   1.000
    O462    O    0.04780   0.28468   0.65863   1.000
    O463    O    0.65863   0.50889   0.04780   1.000
    O464    O    0.28468   0.04780   0.50889   1.000
    O465    O    0.28468   0.50889   0.65863   1.000
    O466    O    0.65863   0.04780   0.28468   1.000
    O467    O    0.04780   0.65863   0.50889   1.000
    O468    O    0.50889   0.28468   0.04780   1.000
    O469    O    0.34137   0.71532   0.95220   1.000
    O470    O    0.71532   0.34137   0.49111   1.000
    O471    O    0.49111   0.95220   0.71532   1.000
    O472    O    0.95220   0.49111   0.34137   1.000
    O473    O    0.49111   0.34137   0.95220   1.000
    O474    O    0.95220   0.71532   0.49111   1.000
    O475    O    0.34137   0.49111   0.71532   1.000
    O476    O    0.71532   0.95220   0.34137   1.000
    O477    O    0.71532   0.49111   0.95220   1.000
    O478    O    0.34137   0.95220   0.49111   1.000
    O479    O    0.95220   0.34137   0.71532   1.000
    O480    O    0.49111   0.71532   0.34137   1.000
    O481    O    0.30394   0.73817   0.48269   1.000
    O482    O    0.73817   0.30394   0.97520   1.000
    O483    O    0.48269   0.97520   0.30394   1.000
    O484    O    0.97520   0.48269   0.73817   1.000
    O485    O    0.48269   0.30394   0.73817   1.000
    O486    O    0.97520   0.73817   0.30394   1.000
    O487    O    0.30394   0.48269   0.97520   1.000
    O488    O    0.73817   0.97520   0.48269   1.000
    O489    O    0.73817   0.48269   0.30394   1.000
    O490    O    0.30394   0.97520   0.73817   1.000
    O491    O    0.97520   0.30394   0.48269   1.000
    O492    O    0.48269   0.73817   0.97520   1.000
    O493    O    0.69606   0.26183   0.02480   1.000
    O494    O    0.26183   0.69606   0.51731   1.000
    O495    O    0.51731   0.02480   0.26183   1.000
    O496    O    0.02480   0.51731   0.69606   1.000
    O497    O    0.51731   0.69606   0.02480   1.000
    O498    O    0.02480   0.26183   0.51731   1.000
    O499    O    0.69606   0.51731   0.26183   1.000
    O500    O    0.26183   0.02480   0.69606   1.000
    O501    O    0.26183   0.51731   0.02480   1.000
    O502    O    0.69606   0.02480   0.51731   1.000
    O503    O    0.02480   0.69606   0.26183   1.000
    O504    O    0.51731   0.26183   0.69606   1.000
    O505    O    0.69606   0.26183   0.51731   1.000
    O506    O    0.26183   0.69606   0.02480   1.000
    O507    O    0.51731   0.02480   0.69606   1.000
    O508    O    0.02480   0.51731   0.26183   1.000
    O509    O    0.51731   0.69606   0.26183   1.000
    O510    O    0.02480   0.26183   0.69606   1.000
    O511    O    0.69606   0.51731   0.02480   1.000
    O512    O    0.26183   0.02480   0.51731   1.000
    O513    O    0.26183   0.51731   0.69606   1.000
    O514    O    0.69606   0.02480   0.26183   1.000
    O515    O    0.02480   0.69606   0.51731   1.000
    O516    O    0.51731   0.26183   0.02480   1.000
    O517    O    0.30394   0.73817   0.97520   1.000
    O518    O    0.73817   0.30394   0.48269   1.000
    O519    O    0.48269   0.97520   0.73817   1.000
    O520    O    0.97520   0.48269   0.30394   1.000
    O521    O    0.48269   0.30394   0.97520   1.000
    O522    O    0.97520   0.73817   0.48269   1.000
    O523    O    0.30394   0.48269   0.73817   1.000
    O524    O    0.73817   0.97520   0.30394   1.000
    O525    O    0.73817   0.48269   0.97520   1.000
    O526    O    0.30394   0.97520   0.48269   1.000
    O527    O    0.97520   0.30394   0.73817   1.000
    O528    O    0.48269   0.73817   0.30394   1.000
    O529    O    0.37620   0.83114   0.41752   1.000
    O530    O    0.83114   0.37620   0.87514   1.000
    O531    O    0.41752   0.87514   0.37620   1.000
    O532    O    0.87514   0.41752   0.83114   1.000
    O533    O    0.41752   0.37620   0.83114   1.000
    O534    O    0.87514   0.83114   0.37620   1.000
    O535    O    0.37620   0.41752   0.87514   1.000
    O536    O    0.83114   0.87514   0.41752   1.000
    O537    O    0.83114   0.41752   0.37620   1.000
    O538    O    0.37620   0.87514   0.83114   1.000
    O539    O    0.87514   0.37620   0.41752   1.000
    O540    O    0.41752   0.83114   0.87514   1.000
    O541    O    0.62380   0.16886   0.12486   1.000
    O542    O    0.16886   0.62380   0.58248   1.000
    O543    O    0.58248   0.12486   0.16886   1.000
    O544    O    0.12486   0.58248   0.62380   1.000
    O545    O    0.58248   0.62380   0.12486   1.000
    O546    O    0.12486   0.16886   0.58248   1.000
    O547    O    0.62380   0.58248   0.16886   1.000
    O548    O    0.16886   0.12486   0.62380   1.000
    O549    O    0.16886   0.58248   0.12486   1.000
    O550    O    0.62380   0.12486   0.58248   1.000
    O551    O    0.12486   0.62380   0.16886   1.000
    O552    O    0.58248   0.16886   0.62380   1.000
    O553    O    0.62380   0.16886   0.58248   1.000
    O554    O    0.16886   0.62380   0.12486   1.000
    O555    O    0.58248   0.12486   0.62380   1.000
    O556    O    0.12486   0.58248   0.16886   1.000
    O557    O    0.58248   0.62380   0.16886   1.000
    O558    O    0.12486   0.16886   0.62380   1.000
    O559    O    0.62380   0.58248   0.12486   1.000
    O560    O    0.16886   0.12486   0.58248   1.000
    O561    O    0.16886   0.58248   0.62380   1.000
    O562    O    0.62380   0.12486   0.16886   1.000
    O563    O    0.12486   0.62380   0.58248   1.000
    O564    O    0.58248   0.16886   0.12486   1.000
    O565    O    0.37620   0.83114   0.87514   1.000
    O566    O    0.83114   0.37620   0.41752   1.000
    O567    O    0.41752   0.87514   0.83114   1.000
    O568    O    0.87514   0.41752   0.37620   1.000
    O569    O    0.41752   0.37620   0.87514   1.000
    O570    O    0.87514   0.83114   0.41752   1.000
    O571    O    0.37620   0.41752   0.83114   1.000
    O572    O    0.83114   0.87514   0.37620   1.000
    O573    O    0.83114   0.41752   0.87514   1.000
    O574    O    0.37620   0.87514   0.41752   1.000
    O575    O    0.87514   0.37620   0.83114   1.000
    O576    O    0.41752   0.83114   0.37620   1.000
    O577    O    0.33681   0.85310   0.41329   1.000
    O578    O    0.85310   0.33681   0.89680   1.000
    O579    O    0.41329   0.89680   0.33681   1.000
    O580    O    0.89680   0.41329   0.85310   1.000
    O581    O    0.41329   0.33681   0.85310   1.000
    O582    O    0.89680   0.85310   0.33681   1.000
    O583    O    0.33681   0.41329   0.89680   1.000
    O584    O    0.85310   0.89680   0.41329   1.000
    O585    O    0.85310   0.41329   0.33681   1.000
    O586    O    0.33681   0.89680   0.85310   1.000
    O587    O    0.89680   0.33681   0.41329   1.000
    O588    O    0.41329   0.85310   0.89680   1.000
    O589    O    0.66319   0.14690   0.10320   1.000
    O590    O    0.14690   0.66319   0.58671   1.000
    O591    O    0.58671   0.10320   0.14690   1.000
    O592    O    0.10320   0.58671   0.66319   1.000
    O593    O    0.58671   0.66319   0.10320   1.000
    O594    O    0.10320   0.14690   0.58671   1.000
    O595    O    0.66319   0.58671   0.14690   1.000
    O596    O    0.14690   0.10320   0.66319   1.000
    O597    O    0.14690   0.58671   0.10320   1.000
    O598    O    0.66319   0.10320   0.58671   1.000
    O599    O    0.10320   0.66319   0.14690   1.000
    O600    O    0.58671   0.14690   0.66319   1.000
    O601    O    0.66319   0.14690   0.58671   1.000
    O602    O    0.14690   0.66319   0.10320   1.000
    O603    O    0.58671   0.10320   0.66319   1.000
    O604    O    0.10320   0.58671   0.14690   1.000
    O605    O    0.58671   0.66319   0.14690   1.000
    O606    O    0.10320   0.14690   0.66319   1.000
    O607    O    0.66319   0.58671   0.10320   1.000
    O608    O    0.14690   0.10320   0.58671   1.000
    O609    O    0.14690   0.58671   0.66319   1.000
    O610    O    0.66319   0.10320   0.14690   1.000
    O611    O    0.10320   0.66319   0.58671   1.000
    O612    O    0.58671   0.14690   0.10320   1.000
    O613    O    0.33681   0.85310   0.89680   1.000
    O614    O    0.85310   0.33681   0.41329   1.000
    O615    O    0.41329   0.89680   0.85310   1.000
    O616    O    0.89680   0.41329   0.33681   1.000
    O617    O    0.41329   0.33681   0.89680   1.000
    O618    O    0.89680   0.85310   0.41329   1.000
    O619    O    0.33681   0.41329   0.85310   1.000
    O620    O    0.85310   0.89680   0.33681   1.000
    O621    O    0.85310   0.41329   0.89680   1.000
    O622    O    0.33681   0.89680   0.41329   1.000
    O623    O    0.89680   0.33681   0.85310   1.000
    O624    O    0.41329   0.85310   0.33681   1.000
    O625    O    0.28601   0.83250   0.32148   1.000
    O626    O    0.83250   0.28601   0.06001   1.000
    O627    O    0.32148   0.06001   0.28601   1.000
    O628    O    0.06001   0.32148   0.83250   1.000
    O629    O    0.32148   0.28601   0.83250   1.000
    O630    O    0.06001   0.83250   0.28601   1.000
    O631    O    0.28601   0.32148   0.06001   1.000
    O632    O    0.83250   0.06001   0.32148   1.000
    O633    O    0.83250   0.32148   0.28601   1.000
    O634    O    0.28601   0.06001   0.83250   1.000
    O635    O    0.06001   0.28601   0.32148   1.000
    O636    O    0.32148   0.83250   0.06001   1.000
    O637    O    0.71399   0.16750   0.93999   1.000
    O638    O    0.16750   0.71399   0.67852   1.000
    O639    O    0.67852   0.93999   0.16750   1.000
    O640    O    0.93999   0.67852   0.71399   1.000
    O641    O    0.67852   0.71399   0.93999   1.000
    O642    O    0.93999   0.16750   0.67852   1.000
    O643    O    0.71399   0.67852   0.16750   1.000
    O644    O    0.16750   0.93999   0.71399   1.000
    O645    O    0.16750   0.67852   0.93999   1.000
    O646    O    0.71399   0.93999   0.67852   1.000
    O647    O    0.93999   0.71399   0.16750   1.000
    O648    O    0.67852   0.16750   0.71399   1.000
    O649    O    0.71399   0.16750   0.67852   1.000
    O650    O    0.16750   0.71399   0.93999   1.000
    O651    O    0.67852   0.93999   0.71399   1.000
    O652    O    0.93999   0.67852   0.16750   1.000
    O653    O    0.67852   0.71399   0.16750   1.000
    O654    O    0.93999   0.16750   0.71399   1.000
    O655    O    0.71399   0.67852   0.93999   1.000
    O656    O    0.16750   0.93999   0.67852   1.000
    O657    O    0.16750   0.67852   0.71399   1.000
    O658    O    0.71399   0.93999   0.16750   1.000
    O659    O    0.93999   0.71399   0.67852   1.000
    O660    O    0.67852   0.16750   0.93999   1.000
    O661    O    0.28601   0.83250   0.06001   1.000
    O662    O    0.83250   0.28601   0.32148   1.000
    O663    O    0.32148   0.06001   0.83250   1.000
    O664    O    0.06001   0.32148   0.28601   1.000
    O665    O    0.32148   0.28601   0.06001   1.000
    O666    O    0.06001   0.83250   0.32148   1.000
    O667    O    0.28601   0.32148   0.83250   1.000
    O668    O    0.83250   0.06001   0.28601   1.000
    O669    O    0.83250   0.32148   0.06001   1.000
    O670    O    0.28601   0.06001   0.32148   1.000
    O671    O    0.06001   0.28601   0.83250   1.000
    O672    O    0.32148   0.83250   0.28601   1.000
    O673    O    0.33203   0.87848   0.36752   1.000
    O674    O    0.87848   0.33203   0.92197   1.000
    O675    O    0.36752   0.92197   0.33203   1.000
    O676    O    0.92197   0.36752   0.87848   1.000
    O677    O    0.36752   0.33203   0.87848   1.000
    O678    O    0.92197   0.87848   0.33203   1.000
    O679    O    0.33203   0.36752   0.92197   1.000
    O680    O    0.87848   0.92197   0.36752   1.000
    O681    O    0.87848   0.36752   0.33203   1.000
    O682    O    0.33203   0.92197   0.87848   1.000
    O683    O    0.92197   0.33203   0.36752   1.000
    O684    O    0.36752   0.87848   0.92197   1.000
    O685    O    0.66797   0.12152   0.07803   1.000
    O686    O    0.12152   0.66797   0.63248   1.000
    O687    O    0.63248   0.07803   0.12152   1.000
    O688    O    0.07803   0.63248   0.66797   1.000
    O689    O    0.63248   0.66797   0.07803   1.000
    O690    O    0.07803   0.12152   0.63248   1.000
    O691    O    0.66797   0.63248   0.12152   1.000
    O692    O    0.12152   0.07803   0.66797   1.000
    O693    O    0.12152   0.63248   0.07803   1.000
    O694    O    0.66797   0.07803   0.63248   1.000
    O695    O    0.07803   0.66797   0.12152   1.000
    O696    O    0.63248   0.12152   0.66797   1.000
    O697    O    0.66797   0.12152   0.63248   1.000
    O698    O    0.12152   0.66797   0.07803   1.000
    O699    O    0.63248   0.07803   0.66797   1.000
    O700    O    0.07803   0.63248   0.12152   1.000
    O701    O    0.63248   0.66797   0.12152   1.000
    O702    O    0.07803   0.12152   0.66797   1.000
    O703    O    0.66797   0.63248   0.07803   1.000
    O704    O    0.12152   0.07803   0.63248   1.000
    O705    O    0.12152   0.63248   0.66797   1.000
    O706    O    0.66797   0.07803   0.12152   1.000
    O707    O    0.07803   0.66797   0.63248   1.000
    O708    O    0.63248   0.12152   0.07803   1.000
    O709    O    0.33203   0.87848   0.92197   1.000
    O710    O    0.87848   0.33203   0.36752   1.000
    O711    O    0.36752   0.92197   0.87848   1.000
    O712    O    0.92197   0.36752   0.33203   1.000
    O713    O    0.36752   0.33203   0.92197   1.000
    O714    O    0.92197   0.87848   0.36752   1.000
    O715    O    0.33203   0.36752   0.87848   1.000
    O716    O    0.87848   0.92197   0.33203   1.000
    O717    O    0.87848   0.36752   0.92197   1.000
    O718    O    0.33203   0.92197   0.36752   1.000
    O719    O    0.92197   0.33203   0.87848   1.000
    O720    O    0.36752   0.87848   0.33203   1.000
    O721    O    0.33514   0.75631   0.29421   1.000
    O722    O    0.75631   0.33514   0.11434   1.000
    O723    O    0.29421   0.11434   0.33514   1.000
    O724    O    0.11434   0.29421   0.75631   1.000
    O725    O    0.29421   0.33514   0.75631   1.000
    O726    O    0.11434   0.75631   0.33514   1.000
    O727    O    0.33514   0.29421   0.11434   1.000
    O728    O    0.75631   0.11434   0.29421   1.000
    O729    O    0.75631   0.29421   0.33514   1.000
    O730    O    0.33514   0.11434   0.75631   1.000
    O731    O    0.11434   0.33514   0.29421   1.000
    O732    O    0.29421   0.75631   0.11434   1.000
    O733    O    0.66486   0.24369   0.88566   1.000
    O734    O    0.24369   0.66486   0.70579   1.000
    O735    O    0.70579   0.88566   0.24369   1.000
    O736    O    0.88566   0.70579   0.66486   1.000
    O737    O    0.70579   0.66486   0.88566   1.000
    O738    O    0.88566   0.24369   0.70579   1.000
    O739    O    0.66486   0.70579   0.24369   1.000
    O740    O    0.24369   0.88566   0.66486   1.000
    O741    O    0.24369   0.70579   0.88566   1.000
    O742    O    0.66486   0.88566   0.70579   1.000
    O743    O    0.88566   0.66486   0.24369   1.000
    O744    O    0.70579   0.24369   0.66486   1.000
    O745    O    0.66486   0.24369   0.70579   1.000
    O746    O    0.24369   0.66486   0.88566   1.000
    O747    O    0.70579   0.88566   0.66486   1.000
    O748    O    0.88566   0.70579   0.24369   1.000
    O749    O    0.70579   0.66486   0.24369   1.000
    O750    O    0.88566   0.24369   0.66486   1.000
    O751    O    0.66486   0.70579   0.88566   1.000
    O752    O    0.24369   0.88566   0.70579   1.000
    O753    O    0.24369   0.70579   0.66486   1.000
    O754    O    0.66486   0.88566   0.24369   1.000
    O755    O    0.88566   0.66486   0.70579   1.000
    O756    O    0.70579   0.24369   0.88566   1.000
    O757    O    0.33514   0.75631   0.11434   1.000
    O758    O    0.75631   0.33514   0.29421   1.000
    O759    O    0.29421   0.11434   0.75631   1.000
    O760    O    0.11434   0.29421   0.33514   1.000
    O761    O    0.29421   0.33514   0.11434   1.000
    O762    O    0.11434   0.75631   0.29421   1.000
    O763    O    0.33514   0.29421   0.75631   1.000
    O764    O    0.75631   0.11434   0.33514   1.000
    O765    O    0.75631   0.29421   0.11434   1.000
    O766    O    0.33514   0.11434   0.29421   1.000
    O767    O    0.11434   0.33514   0.75631   1.000
    O768    O    0.29421   0.75631   0.33514   1.000
    O769    O    0.27192   0.79131   0.34781   1.000
    O770    O    0.79131   0.27192   0.08896   1.000
    O771    O    0.34781   0.08896   0.27192   1.000
    O772    O    0.08896   0.34781   0.79131   1.000
    O773    O    0.34781   0.27192   0.79131   1.000
    O774    O    0.08896   0.79131   0.27192   1.000
    O775    O    0.27192   0.34781   0.08896   1.000
    O776    O    0.79131   0.08896   0.34781   1.000
    O777    O    0.79131   0.34781   0.27192   1.000
    O778    O    0.27192   0.08896   0.79131   1.000
    O779    O    0.08896   0.27192   0.34781   1.000
    O780    O    0.34781   0.79131   0.08896   1.000
    O781    O    0.72808   0.20869   0.91104   1.000
    O782    O    0.20869   0.72808   0.65219   1.000
    O783    O    0.65219   0.91104   0.20869   1.000
    O784    O    0.91104   0.65219   0.72808   1.000
    O785    O    0.65219   0.72808   0.91104   1.000
    O786    O    0.91104   0.20869   0.65219   1.000
    O787    O    0.72808   0.65219   0.20869   1.000
    O788    O    0.20869   0.91104   0.72808   1.000
    O789    O    0.20869   0.65219   0.91104   1.000
    O790    O    0.72808   0.91104   0.65219   1.000
    O791    O    0.91104   0.72808   0.20869   1.000
    O792    O    0.65219   0.20869   0.72808   1.000
    O793    O    0.72808   0.20869   0.65219   1.000
    O794    O    0.20869   0.72808   0.91104   1.000
    O795    O    0.65219   0.91104   0.72808   1.000
    O796    O    0.91104   0.65219   0.20869   1.000
    O797    O    0.65219   0.72808   0.20869   1.000
    O798    O    0.91104   0.20869   0.72808   1.000
    O799    O    0.72808   0.65219   0.91104   1.000
    O800    O    0.20869   0.91104   0.65219   1.000
    O801    O    0.20869   0.65219   0.72808   1.000
    O802    O    0.72808   0.91104   0.20869   1.000
    O803    O    0.91104   0.72808   0.65219   1.000
    O804    O    0.65219   0.20869   0.91104   1.000
    O805    O    0.27192   0.79131   0.08896   1.000
    O806    O    0.79131   0.27192   0.34781   1.000
    O807    O    0.34781   0.08896   0.79131   1.000
    O808    O    0.08896   0.34781   0.27192   1.000
    O809    O    0.34781   0.27192   0.08896   1.000
    O810    O    0.08896   0.79131   0.34781   1.000
    O811    O    0.27192   0.34781   0.79131   1.000
    O812    O    0.79131   0.08896   0.27192   1.000
    O813    O    0.79131   0.34781   0.08896   1.000
    O814    O    0.27192   0.08896   0.34781   1.000
    O815    O    0.08896   0.27192   0.79131   1.000
    O816    O    0.34781   0.79131   0.27192   1.000
    O817    O    0.31692   0.68944   0.54086   1.000
    O818    O    0.68944   0.31692   0.95278   1.000
    O819    O    0.54086   0.95278   0.31692   1.000
    O820    O    0.95278   0.54086   0.68944   1.000
    O821    O    0.54086   0.31692   0.68944   1.000
    O822    O    0.95278   0.68944   0.31692   1.000
    O823    O    0.31692   0.54086   0.95278   1.000
    O824    O    0.68944   0.95278   0.54086   1.000
    O825    O    0.68944   0.54086   0.31692   1.000
    O826    O    0.31692   0.95278   0.68944   1.000
    O827    O    0.95278   0.31692   0.54086   1.000
    O828    O    0.54086   0.68944   0.95278   1.000
    O829    O    0.68308   0.31056   0.04722   1.000
    O830    O    0.31056   0.68308   0.45914   1.000
    O831    O    0.45914   0.04722   0.31056   1.000
    O832    O    0.04722   0.45914   0.68308   1.000
    O833    O    0.45914   0.68308   0.04722   1.000
    O834    O    0.04722   0.31056   0.45914   1.000
    O835    O    0.68308   0.45914   0.31056   1.000
    O836    O    0.31056   0.04722   0.68308   1.000
    O837    O    0.31056   0.45914   0.04722   1.000
    O838    O    0.68308   0.04722   0.45914   1.000
    O839    O    0.04722   0.68308   0.31056   1.000
    O840    O    0.45914   0.31056   0.68308   1.000
    O841    O    0.68308   0.31056   0.45914   1.000
    O842    O    0.31056   0.68308   0.04722   1.000
    O843    O    0.45914   0.04722   0.68308   1.000
    O844    O    0.04722   0.45914   0.31056   1.000
    O845    O    0.45914   0.68308   0.31056   1.000
    O846    O    0.04722   0.31056   0.68308   1.000
    O847    O    0.68308   0.45914   0.04722   1.000
    O848    O    0.31056   0.04722   0.45914   1.000
    O849    O    0.31056   0.45914   0.68308   1.000
    O850    O    0.68308   0.04722   0.31056   1.000
    O851    O    0.04722   0.68308   0.45914   1.000
    O852    O    0.45914   0.31056   0.04722   1.000
    O853    O    0.31692   0.68944   0.95278   1.000
    O854    O    0.68944   0.31692   0.54086   1.000
    O855    O    0.54086   0.95278   0.68944   1.000
    O856    O    0.95278   0.54086   0.31692   1.000
    O857    O    0.54086   0.31692   0.95278   1.000
    O858    O    0.95278   0.68944   0.54086   1.000
    O859    O    0.31692   0.54086   0.68944   1.000
    O860    O    0.68944   0.95278   0.31692   1.000
    O861    O    0.68944   0.54086   0.95278   1.000
    O862    O    0.31692   0.95278   0.54086   1.000
    O863    O    0.95278   0.31692   0.68944   1.000
    O864    O    0.54086   0.68944   0.31692   1.000
    O865    O    0.28610   0.72033   0.46777   1.000
    O866    O    0.72033   0.28610   0.02580   1.000
    O867    O    0.46777   0.02580   0.28610   1.000
    O868    O    0.02580   0.46777   0.72033   1.000
    O869    O    0.46777   0.28610   0.72033   1.000
    O870    O    0.02580   0.72033   0.28610   1.000
    O871    O    0.28610   0.46777   0.02580   1.000
    O872    O    0.72033   0.02580   0.46777   1.000
    O873    O    0.72033   0.46777   0.28610   1.000
    O874    O    0.28610   0.02580   0.72033   1.000
    O875    O    0.02580   0.28610   0.46777   1.000
    O876    O    0.46777   0.72033   0.02580   1.000
    O877    O    0.71390   0.27967   0.97420   1.000
    O878    O    0.27967   0.71390   0.53223   1.000
    O879    O    0.53223   0.97420   0.27967   1.000
    O880    O    0.97420   0.53223   0.71390   1.000
    O881    O    0.53223   0.71390   0.97420   1.000
    O882    O    0.97420   0.27967   0.53223   1.000
    O883    O    0.71390   0.53223   0.27967   1.000
    O884    O    0.27967   0.97420   0.71390   1.000
    O885    O    0.27967   0.53223   0.97420   1.000
    O886    O    0.71390   0.97420   0.53223   1.000
    O887    O    0.97420   0.71390   0.27967   1.000
    O888    O    0.53223   0.27967   0.71390   1.000
    O889    O    0.71390   0.27967   0.53223   1.000
    O890    O    0.27967   0.71390   0.97420   1.000
    O891    O    0.53223   0.97420   0.71390   1.000
    O892    O    0.97420   0.53223   0.27967   1.000
    O893    O    0.53223   0.71390   0.27967   1.000
    O894    O    0.97420   0.27967   0.71390   1.000
    O895    O    0.71390   0.53223   0.97420   1.000
    O896    O    0.27967   0.97420   0.53223   1.000
    O897    O    0.27967   0.53223   0.71390   1.000
    O898    O    0.71390   0.97420   0.27967   1.000
    O899    O    0.97420   0.71390   0.53223   1.000
    O900    O    0.53223   0.27967   0.97420   1.000
    O901    O    0.28610   0.72033   0.02580   1.000
    O902    O    0.72033   0.28610   0.46777   1.000
    O903    O    0.46777   0.02580   0.72033   1.000
    O904    O    0.02580   0.46777   0.28610   1.000
    O905    O    0.46777   0.28610   0.02580   1.000
    O906    O    0.02580   0.72033   0.46777   1.000
    O907    O    0.28610   0.46777   0.72033   1.000
    O908    O    0.72033   0.02580   0.28610   1.000
    O909    O    0.72033   0.46777   0.02580   1.000
    O910    O    0.28610   0.02580   0.46777   1.000
    O911    O    0.02580   0.28610   0.72033   1.000
    O912    O    0.46777   0.72033   0.28610   1.000
    C913    C    0.16460   0.05503   0.20314   1.000
    C914    C    0.05503   0.16460   0.07723   1.000
    C915    C    0.20314   0.07723   0.16460   1.000
    C916    C    0.07723   0.20314   0.05503   1.000
    C917    C    0.20314   0.16460   0.05503   1.000
    C918    C    0.07723   0.05503   0.16460   1.000
    C919    C    0.16460   0.20314   0.07723   1.000
    C920    C    0.05503   0.07723   0.20314   1.000
    C921    C    0.05503   0.20314   0.16460   1.000
    C922    C    0.16460   0.07723   0.05503   1.000
    C923    C    0.07723   0.16460   0.20314   1.000
    C924    C    0.20314   0.05503   0.07723   1.000
    C925    C    0.83540   0.94497   0.92277   1.000
    C926    C    0.94497   0.83540   0.79686   1.000
    C927    C    0.79686   0.92277   0.94497   1.000
    C928    C    0.92277   0.79686   0.83540   1.000
    C929    C    0.79686   0.83540   0.92277   1.000
    C930    C    0.92277   0.94497   0.79686   1.000
    C931    C    0.83540   0.79686   0.94497   1.000
    C932    C    0.94497   0.92277   0.83540   1.000
    C933    C    0.94497   0.79686   0.92277   1.000
    C934    C    0.83540   0.92277   0.79686   1.000
    C935    C    0.92277   0.83540   0.94497   1.000
    C936    C    0.79686   0.94497   0.83540   1.000
    C937    C    0.83540   0.94497   0.79686   1.000
    C938    C    0.94497   0.83540   0.92277   1.000
    C939    C    0.79686   0.92277   0.83540   1.000
    C940    C    0.92277   0.79686   0.94497   1.000
    C941    C    0.79686   0.83540   0.94497   1.000
    C942    C    0.92277   0.94497   0.83540   1.000
    C943    C    0.83540   0.79686   0.92277   1.000
    C944    C    0.94497   0.92277   0.79686   1.000
    C945    C    0.94497   0.79686   0.83540   1.000
    C946    C    0.83540   0.92277   0.94497   1.000
    C947    C    0.92277   0.83540   0.79686   1.000
    C948    C    0.79686   0.94497   0.92277   1.000
    C949    C    0.16460   0.05503   0.07723   1.000
    C950    C    0.05503   0.16460   0.20314   1.000
    C951    C    0.20314   0.07723   0.05503   1.000
    C952    C    0.07723   0.20314   0.16460   1.000
    C953    C    0.20314   0.16460   0.07723   1.000
    C954    C    0.07723   0.05503   0.20314   1.000
    C955    C    0.16460   0.20314   0.05503   1.000
    C956    C    0.05503   0.07723   0.16460   1.000
    C957    C    0.05503   0.20314   0.07723   1.000
    C958    C    0.16460   0.07723   0.20314   1.000
    C959    C    0.07723   0.16460   0.05503   1.000
    C960    C    0.20314   0.05503   0.16460   1.000
    C961    C    0.22583   0.89690   0.26437   1.000
    C962    C    0.89690   0.22583   0.11290   1.000
    C963    C    0.26437   0.11290   0.22583   1.000
    C964    C    0.11290   0.26437   0.89690   1.000
    C965    C    0.26437   0.22583   0.89690   1.000
    C966    C    0.11290   0.89690   0.22583   1.000
    C967    C    0.22583   0.26437   0.11290   1.000
    C968    C    0.89690   0.11290   0.26437   1.000
    C969    C    0.89690   0.26437   0.22583   1.000
    C970    C    0.22583   0.11290   0.89690   1.000
    C971    C    0.11290   0.22583   0.26437   1.000
    C972    C    0.26437   0.89690   0.11290   1.000
    C973    C    0.77417   0.10310   0.88710   1.000
    C974    C    0.10310   0.77417   0.73563   1.000
    C975    C    0.73563   0.88710   0.10310   1.000
    C976    C    0.88710   0.73563   0.77417   1.000
    C977    C    0.73563   0.77417   0.88710   1.000
    C978    C    0.88710   0.10310   0.73563   1.000
    C979    C    0.77417   0.73563   0.10310   1.000
    C980    C    0.10310   0.88710   0.77417   1.000
    C981    C    0.10310   0.73563   0.88710   1.000
    C982    C    0.77417   0.88710   0.73563   1.000
    C983    C    0.88710   0.77417   0.10310   1.000
    C984    C    0.73563   0.10310   0.77417   1.000
    C985    C    0.77417   0.10310   0.73563   1.000
    C986    C    0.10310   0.77417   0.88710   1.000
    C987    C    0.73563   0.88710   0.77417   1.000
    C988    C    0.88710   0.73563   0.10310   1.000
    C989    C    0.73563   0.77417   0.10310   1.000
    C990    C    0.88710   0.10310   0.77417   1.000
    C991    C    0.77417   0.73563   0.88710   1.000
    C992    C    0.10310   0.88710   0.73563   1.000
    C993    C    0.10310   0.73563   0.77417   1.000
    C994    C    0.77417   0.88710   0.10310   1.000
    C995    C    0.88710   0.77417   0.73563   1.000
    C996    C    0.73563   0.10310   0.88710   1.000
    C997    C    0.22583   0.89690   0.11290   1.000
    C998    C    0.89690   0.22583   0.26437   1.000
    C999    C    0.26437   0.11290   0.89690   1.000
    C1000   C    0.11290   0.26437   0.22583   1.000
    C1001   C    0.26437   0.22583   0.11290   1.000
    C1002   C    0.11290   0.89690   0.26437   1.000
    C1003   C    0.22583   0.26437   0.89690   1.000
    C1004   C    0.89690   0.11290   0.22583   1.000
    C1005   C    0.89690   0.26437   0.11290   1.000
    C1006   C    0.22583   0.11290   0.26437   1.000
    C1007   C    0.11290   0.22583   0.89690   1.000
    C1008   C    0.26437   0.89690   0.22583   1.000
    C1009   C    0.21083   0.91845   0.24937   1.000
    C1010   C    0.91845   0.21083   0.12135   1.000
    C1011   C    0.24937   0.12135   0.21083   1.000
    C1012   C    0.12135   0.24937   0.91845   1.000
    C1013   C    0.24937   0.21083   0.91845   1.000
    C1014   C    0.12135   0.91845   0.21083   1.000
    C1015   C    0.21083   0.24937   0.12135   1.000
    C1016   C    0.91845   0.12135   0.24937   1.000
    C1017   C    0.91845   0.24937   0.21083   1.000
    C1018   C    0.21083   0.12135   0.91845   1.000
    C1019   C    0.12135   0.21083   0.24937   1.000
    C1020   C    0.24937   0.91845   0.12135   1.000
    C1021   C    0.78917   0.08155   0.87865   1.000
    C1022   C    0.08155   0.78917   0.75063   1.000
    C1023   C    0.75063   0.87865   0.08155   1.000
    C1024   C    0.87865   0.75063   0.78917   1.000
    C1025   C    0.75063   0.78917   0.87865   1.000
    C1026   C    0.87865   0.08155   0.75063   1.000
    C1027   C    0.78917   0.75063   0.08155   1.000
    C1028   C    0.08155   0.87865   0.78917   1.000
    C1029   C    0.08155   0.75063   0.87865   1.000
    C1030   C    0.78917   0.87865   0.75063   1.000
    C1031   C    0.87865   0.78917   0.08155   1.000
    C1032   C    0.75063   0.08155   0.78917   1.000
    C1033   C    0.78917   0.08155   0.75063   1.000
    C1034   C    0.08155   0.78917   0.87865   1.000
    C1035   C    0.75063   0.87865   0.78917   1.000
    C1036   C    0.87865   0.75063   0.08155   1.000
    C1037   C    0.75063   0.78917   0.08155   1.000
    C1038   C    0.87865   0.08155   0.78917   1.000
    C1039   C    0.78917   0.75063   0.87865   1.000
    C1040   C    0.08155   0.87865   0.75063   1.000
    C1041   C    0.08155   0.75063   0.78917   1.000
    C1042   C    0.78917   0.87865   0.08155   1.000
    C1043   C    0.87865   0.78917   0.75063   1.000
    C1044   C    0.75063   0.08155   0.87865   1.000
    C1045   C    0.21083   0.91845   0.12135   1.000
    C1046   C    0.91845   0.21083   0.24937   1.000
    C1047   C    0.24937   0.12135   0.91845   1.000
    C1048   C    0.12135   0.24937   0.21083   1.000
    C1049   C    0.24937   0.21083   0.12135   1.000
    C1050   C    0.12135   0.91845   0.24937   1.000
    C1051   C    0.21083   0.24937   0.91845   1.000
    C1052   C    0.91845   0.12135   0.21083   1.000
    C1053   C    0.91845   0.24937   0.12135   1.000
    C1054   C    0.21083   0.12135   0.24937   1.000
    C1055   C    0.12135   0.21083   0.91845   1.000
    C1056   C    0.24937   0.91845   0.21083   1.000
    C1057   C    0.22018   0.77324   0.30864   1.000
    C1058   C    0.77324   0.22018   0.19794   1.000
    C1059   C    0.30864   0.19794   0.22018   1.000
    C1060   C    0.19794   0.30864   0.77324   1.000
    C1061   C    0.30864   0.22018   0.77324   1.000
    C1062   C    0.19794   0.77324   0.22018   1.000
    C1063   C    0.22018   0.30864   0.19794   1.000
    C1064   C    0.77324   0.19794   0.30864   1.000
    C1065   C    0.77324   0.30864   0.22018   1.000
    C1066   C    0.22018   0.19794   0.77324   1.000
    C1067   C    0.19794   0.22018   0.30864   1.000
    C1068   C    0.30864   0.77324   0.19794   1.000
    C1069   C    0.77982   0.22676   0.80206   1.000
    C1070   C    0.22676   0.77982   0.69136   1.000
    C1071   C    0.69136   0.80206   0.22676   1.000
    C1072   C    0.80206   0.69136   0.77982   1.000
    C1073   C    0.69136   0.77982   0.80206   1.000
    C1074   C    0.80206   0.22676   0.69136   1.000
    C1075   C    0.77982   0.69136   0.22676   1.000
    C1076   C    0.22676   0.80206   0.77982   1.000
    C1077   C    0.22676   0.69136   0.80206   1.000
    C1078   C    0.77982   0.80206   0.69136   1.000
    C1079   C    0.80206   0.77982   0.22676   1.000
    C1080   C    0.69136   0.22676   0.77982   1.000
    C1081   C    0.77982   0.22676   0.69136   1.000
    C1082   C    0.22676   0.77982   0.80206   1.000
    C1083   C    0.69136   0.80206   0.77982   1.000
    C1084   C    0.80206   0.69136   0.22676   1.000
    C1085   C    0.69136   0.77982   0.22676   1.000
    C1086   C    0.80206   0.22676   0.77982   1.000
    C1087   C    0.77982   0.69136   0.80206   1.000
    C1088   C    0.22676   0.80206   0.69136   1.000
    C1089   C    0.22676   0.69136   0.77982   1.000
    C1090   C    0.77982   0.80206   0.22676   1.000
    C1091   C    0.80206   0.77982   0.69136   1.000
    C1092   C    0.69136   0.22676   0.80206   1.000
    C1093   C    0.22018   0.77324   0.19794   1.000
    C1094   C    0.77324   0.22018   0.30864   1.000
    C1095   C    0.30864   0.19794   0.77324   1.000
    C1096   C    0.19794   0.30864   0.22018   1.000
    C1097   C    0.30864   0.22018   0.19794   1.000
    C1098   C    0.19794   0.77324   0.30864   1.000
    C1099   C    0.22018   0.30864   0.77324   1.000
    C1100   C    0.77324   0.19794   0.22018   1.000
    C1101   C    0.77324   0.30864   0.19794   1.000
    C1102   C    0.22018   0.19794   0.30864   1.000
    C1103   C    0.19794   0.22018   0.77324   1.000
    C1104   C    0.30864   0.77324   0.22018   1.000
    C1105   C    0.24315   0.79323   0.31304   1.000
    C1106   C    0.79323   0.24315   0.15058   1.000
    C1107   C    0.31304   0.15058   0.24315   1.000
    C1108   C    0.15058   0.31304   0.79323   1.000
    C1109   C    0.31304   0.24315   0.79323   1.000
    C1110   C    0.15058   0.79323   0.24315   1.000
    C1111   C    0.24315   0.31304   0.15058   1.000
    C1112   C    0.79323   0.15058   0.31304   1.000
    C1113   C    0.79323   0.31304   0.24315   1.000
    C1114   C    0.24315   0.15058   0.79323   1.000
    C1115   C    0.15058   0.24315   0.31304   1.000
    C1116   C    0.31304   0.79323   0.15058   1.000
    C1117   C    0.75685   0.20677   0.84942   1.000
    C1118   C    0.20677   0.75685   0.68696   1.000
    C1119   C    0.68696   0.84942   0.20677   1.000
    C1120   C    0.84942   0.68696   0.75685   1.000
    C1121   C    0.68696   0.75685   0.84942   1.000
    C1122   C    0.84942   0.20677   0.68696   1.000
    C1123   C    0.75685   0.68696   0.20677   1.000
    C1124   C    0.20677   0.84942   0.75685   1.000
    C1125   C    0.20677   0.68696   0.84942   1.000
    C1126   C    0.75685   0.84942   0.68696   1.000
    C1127   C    0.84942   0.75685   0.20677   1.000
    C1128   C    0.68696   0.20677   0.75685   1.000
    C1129   C    0.75685   0.20677   0.68696   1.000
    C1130   C    0.20677   0.75685   0.84942   1.000
    C1131   C    0.68696   0.84942   0.75685   1.000
    C1132   C    0.84942   0.68696   0.20677   1.000
    C1133   C    0.68696   0.75685   0.20677   1.000
    C1134   C    0.84942   0.20677   0.75685   1.000
    C1135   C    0.75685   0.68696   0.84942   1.000
    C1136   C    0.20677   0.84942   0.68696   1.000
    C1137   C    0.20677   0.68696   0.75685   1.000
    C1138   C    0.75685   0.84942   0.20677   1.000
    C1139   C    0.84942   0.75685   0.68696   1.000
    C1140   C    0.68696   0.20677   0.84942   1.000
    C1141   C    0.24315   0.79323   0.15058   1.000
    C1142   C    0.79323   0.24315   0.31304   1.000
    C1143   C    0.31304   0.15058   0.79323   1.000
    C1144   C    0.15058   0.31304   0.24315   1.000
    C1145   C    0.31304   0.24315   0.15058   1.000
    C1146   C    0.15058   0.79323   0.31304   1.000
    C1147   C    0.24315   0.31304   0.79323   1.000
    C1148   C    0.79323   0.15058   0.24315   1.000
    C1149   C    0.79323   0.31304   0.15058   1.000
    C1150   C    0.24315   0.15058   0.31304   1.000
    C1151   C    0.15058   0.24315   0.79323   1.000
    C1152   C    0.31304   0.79323   0.24315   1.000
    C1153   C    0.21898   0.79280   0.31444   1.000
    C1154   C    0.79280   0.21898   0.17378   1.000
    C1155   C    0.31444   0.17378   0.21898   1.000
    C1156   C    0.17378   0.31444   0.79280   1.000
    C1157   C    0.31444   0.21898   0.79280   1.000
    C1158   C    0.17378   0.79280   0.21898   1.000
    C1159   C    0.21898   0.31444   0.17378   1.000
    C1160   C    0.79280   0.17378   0.31444   1.000
    C1161   C    0.79280   0.31444   0.21898   1.000
    C1162   C    0.21898   0.17378   0.79280   1.000
    C1163   C    0.17378   0.21898   0.31444   1.000
    C1164   C    0.31444   0.79280   0.17378   1.000
    C1165   C    0.78102   0.20720   0.82622   1.000
    C1166   C    0.20720   0.78102   0.68556   1.000
    C1167   C    0.68556   0.82622   0.20720   1.000
    C1168   C    0.82622   0.68556   0.78102   1.000
    C1169   C    0.68556   0.78102   0.82622   1.000
    C1170   C    0.82622   0.20720   0.68556   1.000
    C1171   C    0.78102   0.68556   0.20720   1.000
    C1172   C    0.20720   0.82622   0.78102   1.000
    C1173   C    0.20720   0.68556   0.82622   1.000
    C1174   C    0.78102   0.82622   0.68556   1.000
    C1175   C    0.82622   0.78102   0.20720   1.000
    C1176   C    0.68556   0.20720   0.78102   1.000
    C1177   C    0.78102   0.20720   0.68556   1.000
    C1178   C    0.20720   0.78102   0.82622   1.000
    C1179   C    0.68556   0.82622   0.78102   1.000
    C1180   C    0.82622   0.68556   0.20720   1.000
    C1181   C    0.68556   0.78102   0.20720   1.000
    C1182   C    0.82622   0.20720   0.78102   1.000
    C1183   C    0.78102   0.68556   0.82622   1.000
    C1184   C    0.20720   0.82622   0.68556   1.000
    C1185   C    0.20720   0.68556   0.78102   1.000
    C1186   C    0.78102   0.82622   0.20720   1.000
    C1187   C    0.82622   0.78102   0.68556   1.000
    C1188   C    0.68556   0.20720   0.82622   1.000
    C1189   C    0.21898   0.79280   0.17378   1.000
    C1190   C    0.79280   0.21898   0.31444   1.000
    C1191   C    0.31444   0.17378   0.79280   1.000
    C1192   C    0.17378   0.31444   0.21898   1.000
    C1193   C    0.31444   0.21898   0.17378   1.000
    C1194   C    0.17378   0.79280   0.31444   1.000
    C1195   C    0.21898   0.31444   0.79280   1.000
    C1196   C    0.79280   0.17378   0.21898   1.000
    C1197   C    0.79280   0.31444   0.17378   1.000
    C1198   C    0.21898   0.17378   0.31444   1.000
    C1199   C    0.17378   0.21898   0.79280   1.000
    C1200   C    0.31444   0.79280   0.21898   1.000
    C1201   C    0.19474   0.81219   0.32067   1.000
    C1202   C    0.81219   0.19474   0.17240   1.000
    C1203   C    0.32067   0.17240   0.19474   1.000
    C1204   C    0.17240   0.32067   0.81219   1.000
    C1205   C    0.32067   0.19474   0.81219   1.000
    C1206   C    0.17240   0.81219   0.19474   1.000
    C1207   C    0.19474   0.32067   0.17240   1.000
    C1208   C    0.81219   0.17240   0.32067   1.000
    C1209   C    0.81219   0.32067   0.19474   1.000
    C1210   C    0.19474   0.17240   0.81219   1.000
    C1211   C    0.17240   0.19474   0.32067   1.000
    C1212   C    0.32067   0.81219   0.17240   1.000
    C1213   C    0.80526   0.18781   0.82760   1.000
    C1214   C    0.18781   0.80526   0.67933   1.000
    C1215   C    0.67933   0.82760   0.18781   1.000
    C1216   C    0.82760   0.67933   0.80526   1.000
    C1217   C    0.67933   0.80526   0.82760   1.000
    C1218   C    0.82760   0.18781   0.67933   1.000
    C1219   C    0.80526   0.67933   0.18781   1.000
    C1220   C    0.18781   0.82760   0.80526   1.000
    C1221   C    0.18781   0.67933   0.82760   1.000
    C1222   C    0.80526   0.82760   0.67933   1.000
    C1223   C    0.82760   0.80526   0.18781   1.000
    C1224   C    0.67933   0.18781   0.80526   1.000
    C1225   C    0.80526   0.18781   0.67933   1.000
    C1226   C    0.18781   0.80526   0.82760   1.000
    C1227   C    0.67933   0.82760   0.80526   1.000
    C1228   C    0.82760   0.67933   0.18781   1.000
    C1229   C    0.67933   0.80526   0.18781   1.000
    C1230   C    0.82760   0.18781   0.80526   1.000
    C1231   C    0.80526   0.67933   0.82760   1.000
    C1232   C    0.18781   0.82760   0.67933   1.000
    C1233   C    0.18781   0.67933   0.80526   1.000
    C1234   C    0.80526   0.82760   0.18781   1.000
    C1235   C    0.82760   0.80526   0.67933   1.000
    C1236   C    0.67933   0.18781   0.82760   1.000
    C1237   C    0.19474   0.81219   0.17240   1.000
    C1238   C    0.81219   0.19474   0.32067   1.000
    C1239   C    0.32067   0.17240   0.81219   1.000
    C1240   C    0.17240   0.32067   0.19474   1.000
    C1241   C    0.32067   0.19474   0.17240   1.000
    C1242   C    0.17240   0.81219   0.32067   1.000
    C1243   C    0.19474   0.32067   0.81219   1.000
    C1244   C    0.81219   0.17240   0.19474   1.000
    C1245   C    0.81219   0.32067   0.17240   1.000
    C1246   C    0.19474   0.17240   0.32067   1.000
    C1247   C    0.17240   0.19474   0.81219   1.000
    C1248   C    0.32067   0.81219   0.19474   1.000
    C1249   C    0.41686   0.66727   0.43926   1.000
    C1250   C    0.66727   0.41686   0.97661   1.000
    C1251   C    0.43926   0.97661   0.41686   1.000
    C1252   C    0.97661   0.43926   0.66727   1.000
    C1253   C    0.43926   0.41686   0.66727   1.000
    C1254   C    0.97661   0.66727   0.41686   1.000
    C1255   C    0.41686   0.43926   0.97661   1.000
    C1256   C    0.66727   0.97661   0.43926   1.000
    C1257   C    0.66727   0.43926   0.41686   1.000
    C1258   C    0.41686   0.97661   0.66727   1.000
    C1259   C    0.97661   0.41686   0.43926   1.000
    C1260   C    0.43926   0.66727   0.97661   1.000
    C1261   C    0.58314   0.33273   0.02339   1.000
    C1262   C    0.33273   0.58314   0.56074   1.000
    C1263   C    0.56074   0.02339   0.33273   1.000
    C1264   C    0.02339   0.56074   0.58314   1.000
    C1265   C    0.56074   0.58314   0.02339   1.000
    C1266   C    0.02339   0.33273   0.56074   1.000
    C1267   C    0.58314   0.56074   0.33273   1.000
    C1268   C    0.33273   0.02339   0.58314   1.000
    C1269   C    0.33273   0.56074   0.02339   1.000
    C1270   C    0.58314   0.02339   0.56074   1.000
    C1271   C    0.02339   0.58314   0.33273   1.000
    C1272   C    0.56074   0.33273   0.58314   1.000
    C1273   C    0.58314   0.33273   0.56074   1.000
    C1274   C    0.33273   0.58314   0.02339   1.000
    C1275   C    0.56074   0.02339   0.58314   1.000
    C1276   C    0.02339   0.56074   0.33273   1.000
    C1277   C    0.56074   0.58314   0.33273   1.000
    C1278   C    0.02339   0.33273   0.58314   1.000
    C1279   C    0.58314   0.56074   0.02339   1.000
    C1280   C    0.33273   0.02339   0.56074   1.000
    C1281   C    0.33273   0.56074   0.58314   1.000
    C1282   C    0.58314   0.02339   0.33273   1.000
    C1283   C    0.02339   0.58314   0.56074   1.000
    C1284   C    0.56074   0.33273   0.02339   1.000
    C1285   C    0.41686   0.66727   0.97661   1.000
    C1286   C    0.66727   0.41686   0.43926   1.000
    C1287   C    0.43926   0.97661   0.66727   1.000
    C1288   C    0.97661   0.43926   0.41686   1.000
    C1289   C    0.43926   0.41686   0.97661   1.000
    C1290   C    0.97661   0.66727   0.43926   1.000
    C1291   C    0.41686   0.43926   0.66727   1.000
    C1292   C    0.66727   0.97661   0.41686   1.000
    C1293   C    0.66727   0.43926   0.97661   1.000
    C1294   C    0.41686   0.97661   0.43926   1.000
    C1295   C    0.97661   0.41686   0.66727   1.000
    C1296   C    0.43926   0.66727   0.41686   1.000
    C1297   C    0.37225   0.66200   0.46573   1.000
    C1298   C    0.66200   0.37225   0.00002   1.000
    C1299   C    0.46573   0.00002   0.37225   1.000
    C1300   C    0.00002   0.46573   0.66200   1.000
    C1301   C    0.46573   0.37225   0.66200   1.000
    C1302   C    0.00002   0.66200   0.37225   1.000
    C1303   C    0.37225   0.46573   0.00002   1.000
    C1304   C    0.66200   0.00002   0.46573   1.000
    C1305   C    0.66200   0.46573   0.37225   1.000
    C1306   C    0.37225   0.00002   0.66200   1.000
    C1307   C    0.00002   0.37225   0.46573   1.000
    C1308   C    0.46573   0.66200   0.00002   1.000
    C1309   C    0.62775   0.33800   0.99998   1.000
    C1310   C    0.33800   0.62775   0.53427   1.000
    C1311   C    0.53427   0.99998   0.33800   1.000
    C1312   C    0.99998   0.53427   0.62775   1.000
    C1313   C    0.53427   0.62775   0.99998   1.000
    C1314   C    0.99998   0.33800   0.53427   1.000
    C1315   C    0.62775   0.53427   0.33800   1.000
    C1316   C    0.33800   0.99998   0.62775   1.000
    C1317   C    0.33800   0.53427   0.99998   1.000
    C1318   C    0.62775   0.99998   0.53427   1.000
    C1319   C    0.99998   0.62775   0.33800   1.000
    C1320   C    0.53427   0.33800   0.62775   1.000
    C1321   C    0.62775   0.33800   0.53427   1.000
    C1322   C    0.33800   0.62775   0.99998   1.000
    C1323   C    0.53427   0.99998   0.62775   1.000
    C1324   C    0.99998   0.53427   0.33800   1.000
    C1325   C    0.53427   0.62775   0.33800   1.000
    C1326   C    0.99998   0.33800   0.62775   1.000
    C1327   C    0.62775   0.53427   0.99998   1.000
    C1328   C    0.33800   0.99998   0.53427   1.000
    C1329   C    0.33800   0.53427   0.62775   1.000
    C1330   C    0.62775   0.99998   0.33800   1.000
    C1331   C    0.99998   0.62775   0.53427   1.000
    C1332   C    0.53427   0.33800   0.99998   1.000
    C1333   C    0.37225   0.66200   0.00002   1.000
    C1334   C    0.66200   0.37225   0.46573   1.000
    C1335   C    0.46573   0.00002   0.66200   1.000
    C1336   C    0.00002   0.46573   0.37225   1.000
    C1337   C    0.46573   0.37225   0.00002   1.000
    C1338   C    0.00002   0.66200   0.46573   1.000
    C1339   C    0.37225   0.46573   0.66200   1.000
    C1340   C    0.66200   0.00002   0.37225   1.000
    C1341   C    0.66200   0.46573   0.00002   1.000
    C1342   C    0.37225   0.00002   0.46573   1.000
    C1343   C    0.00002   0.37225   0.66200   1.000
    C1344   C    0.46573   0.66200   0.37225   1.000
    C1345   C    0.39732   0.65957   0.44300   1.000
    C1346   C    0.65957   0.39732   0.00011   1.000
    C1347   C    0.44300   0.00011   0.39732   1.000
    C1348   C    0.00011   0.44300   0.65957   1.000
    C1349   C    0.44300   0.39732   0.65957   1.000
    C1350   C    0.00011   0.65957   0.39732   1.000
    C1351   C    0.39732   0.44300   0.00011   1.000
    C1352   C    0.65957   0.00011   0.44300   1.000
    C1353   C    0.65957   0.44300   0.39732   1.000
    C1354   C    0.39732   0.00011   0.65957   1.000
    C1355   C    0.00011   0.39732   0.44300   1.000
    C1356   C    0.44300   0.65957   0.00011   1.000
    C1357   C    0.60268   0.34043   0.99989   1.000
    C1358   C    0.34043   0.60268   0.55700   1.000
    C1359   C    0.55700   0.99989   0.34043   1.000
    C1360   C    0.99989   0.55700   0.60268   1.000
    C1361   C    0.55700   0.60268   0.99989   1.000
    C1362   C    0.99989   0.34043   0.55700   1.000
    C1363   C    0.60268   0.55700   0.34043   1.000
    C1364   C    0.34043   0.99989   0.60268   1.000
    C1365   C    0.34043   0.55700   0.99989   1.000
    C1366   C    0.60268   0.99989   0.55700   1.000
    C1367   C    0.99989   0.60268   0.34043   1.000
    C1368   C    0.55700   0.34043   0.60268   1.000
    C1369   C    0.60268   0.34043   0.55700   1.000
    C1370   C    0.34043   0.60268   0.99989   1.000
    C1371   C    0.55700   0.99989   0.60268   1.000
    C1372   C    0.99989   0.55700   0.34043   1.000
    C1373   C    0.55700   0.60268   0.34043   1.000
    C1374   C    0.99989   0.34043   0.60268   1.000
    C1375   C    0.60268   0.55700   0.99989   1.000
    C1376   C    0.34043   0.99989   0.55700   1.000
    C1377   C    0.34043   0.55700   0.60268   1.000
    C1378   C    0.60268   0.99989   0.34043   1.000
    C1379   C    0.99989   0.60268   0.55700   1.000
    C1380   C    0.55700   0.34043   0.99989   1.000
    C1381   C    0.39732   0.65957   0.00011   1.000
    C1382   C    0.65957   0.39732   0.44300   1.000
    C1383   C    0.44300   0.00011   0.65957   1.000
    C1384   C    0.00011   0.44300   0.39732   1.000
    C1385   C    0.44300   0.39732   0.00011   1.000
    C1386   C    0.00011   0.65957   0.44300   1.000
    C1387   C    0.39732   0.44300   0.65957   1.000
    C1388   C    0.65957   0.00011   0.39732   1.000
    C1389   C    0.65957   0.44300   0.00011   1.000
    C1390   C    0.39732   0.00011   0.44300   1.000
    C1391   C    0.00011   0.39732   0.65957   1.000
    C1392   C    0.44300   0.65957   0.39732   1.000
    C1393   C    0.40137   0.65121   0.42380   1.000
    C1394   C    0.65121   0.40137   0.02362   1.000
    C1395   C    0.42380   0.02362   0.40137   1.000
    C1396   C    0.02362   0.42380   0.65121   1.000
    C1397   C    0.42380   0.40137   0.65121   1.000
    C1398   C    0.02362   0.65121   0.40137   1.000
    C1399   C    0.40137   0.42380   0.02362   1.000
    C1400   C    0.65121   0.02362   0.42380   1.000
    C1401   C    0.65121   0.42380   0.40137   1.000
    C1402   C    0.40137   0.02362   0.65121   1.000
    C1403   C    0.02362   0.40137   0.42380   1.000
    C1404   C    0.42380   0.65121   0.02362   1.000
    C1405   C    0.59863   0.34879   0.97638   1.000
    C1406   C    0.34879   0.59863   0.57620   1.000
    C1407   C    0.57620   0.97638   0.34879   1.000
    C1408   C    0.97638   0.57620   0.59863   1.000
    C1409   C    0.57620   0.59863   0.97638   1.000
    C1410   C    0.97638   0.34879   0.57620   1.000
    C1411   C    0.59863   0.57620   0.34879   1.000
    C1412   C    0.34879   0.97638   0.59863   1.000
    C1413   C    0.34879   0.57620   0.97638   1.000
    C1414   C    0.59863   0.97638   0.57620   1.000
    C1415   C    0.97638   0.59863   0.34879   1.000
    C1416   C    0.57620   0.34879   0.59863   1.000
    C1417   C    0.59863   0.34879   0.57620   1.000
    C1418   C    0.34879   0.59863   0.97638   1.000
    C1419   C    0.57620   0.97638   0.59863   1.000
    C1420   C    0.97638   0.57620   0.34879   1.000
    C1421   C    0.57620   0.59863   0.34879   1.000
    C1422   C    0.97638   0.34879   0.59863   1.000
    C1423   C    0.59863   0.57620   0.97638   1.000
    C1424   C    0.34879   0.97638   0.57620   1.000
    C1425   C    0.34879   0.57620   0.59863   1.000
    C1426   C    0.59863   0.97638   0.34879   1.000
    C1427   C    0.97638   0.59863   0.57620   1.000
    C1428   C    0.57620   0.34879   0.97638   1.000
    C1429   C    0.40137   0.65121   0.02362   1.000
    C1430   C    0.65121   0.40137   0.42380   1.000
    C1431   C    0.42380   0.02362   0.65121   1.000
    C1432   C    0.02362   0.42380   0.40137   1.000
    C1433   C    0.42380   0.40137   0.02362   1.000
    C1434   C    0.02362   0.65121   0.42380   1.000
    C1435   C    0.40137   0.42380   0.65121   1.000
    C1436   C    0.65121   0.02362   0.40137   1.000
    C1437   C    0.65121   0.42380   0.02362   1.000
    C1438   C    0.40137   0.02362   0.42380   1.000
    C1439   C    0.02362   0.40137   0.65121   1.000
    C1440   C    0.42380   0.65121   0.40137   1.000
    C1441   C    0.35729   0.76069   0.46238   1.000
    C1442   C    0.76069   0.35729   0.91964   1.000
    C1443   C    0.46238   0.91964   0.35729   1.000
    C1444   C    0.91964   0.46238   0.76069   1.000
    C1445   C    0.46238   0.35729   0.76069   1.000
    C1446   C    0.91964   0.76069   0.35729   1.000
    C1447   C    0.35729   0.46238   0.91964   1.000
    C1448   C    0.76069   0.91964   0.46238   1.000
    C1449   C    0.76069   0.46238   0.35729   1.000
    C1450   C    0.35729   0.91964   0.76069   1.000
    C1451   C    0.91964   0.35729   0.46238   1.000
    C1452   C    0.46238   0.76069   0.91964   1.000
    C1453   C    0.64271   0.23931   0.08036   1.000
    C1454   C    0.23931   0.64271   0.53762   1.000
    C1455   C    0.53762   0.08036   0.23931   1.000
    C1456   C    0.08036   0.53762   0.64271   1.000
    C1457   C    0.53762   0.64271   0.08036   1.000
    C1458   C    0.08036   0.23931   0.53762   1.000
    C1459   C    0.64271   0.53762   0.23931   1.000
    C1460   C    0.23931   0.08036   0.64271   1.000
    C1461   C    0.23931   0.53762   0.08036   1.000
    C1462   C    0.64271   0.08036   0.53762   1.000
    C1463   C    0.08036   0.64271   0.23931   1.000
    C1464   C    0.53762   0.23931   0.64271   1.000
    C1465   C    0.64271   0.23931   0.53762   1.000
    C1466   C    0.23931   0.64271   0.08036   1.000
    C1467   C    0.53762   0.08036   0.64271   1.000
    C1468   C    0.08036   0.53762   0.23931   1.000
    C1469   C    0.53762   0.64271   0.23931   1.000
    C1470   C    0.08036   0.23931   0.64271   1.000
    C1471   C    0.64271   0.53762   0.08036   1.000
    C1472   C    0.23931   0.08036   0.53762   1.000
    C1473   C    0.23931   0.53762   0.64271   1.000
    C1474   C    0.64271   0.08036   0.23931   1.000
    C1475   C    0.08036   0.64271   0.53762   1.000
    C1476   C    0.53762   0.23931   0.08036   1.000
    C1477   C    0.35729   0.76069   0.91964   1.000
    C1478   C    0.76069   0.35729   0.46238   1.000
    C1479   C    0.46238   0.91964   0.76069   1.000
    C1480   C    0.91964   0.46238   0.35729   1.000
    C1481   C    0.46238   0.35729   0.91964   1.000
    C1482   C    0.91964   0.76069   0.46238   1.000
    C1483   C    0.35729   0.46238   0.76069   1.000
    C1484   C    0.76069   0.91964   0.35729   1.000
    C1485   C    0.76069   0.46238   0.91964   1.000
    C1486   C    0.35729   0.91964   0.46238   1.000
    C1487   C    0.91964   0.35729   0.76069   1.000
    C1488   C    0.46238   0.76069   0.35729   1.000
    C1489   C    0.32574   0.73661   0.48088   1.000
    C1490   C    0.73661   0.32574   0.95677   1.000
    C1491   C    0.48088   0.95677   0.32574   1.000
    C1492   C    0.95677   0.48088   0.73661   1.000
    C1493   C    0.48088   0.32574   0.73661   1.000
    C1494   C    0.95677   0.73661   0.32574   1.000
    C1495   C    0.32574   0.48088   0.95677   1.000
    C1496   C    0.73661   0.95677   0.48088   1.000
    C1497   C    0.73661   0.48088   0.32574   1.000
    C1498   C    0.32574   0.95677   0.73661   1.000
    C1499   C    0.95677   0.32574   0.48088   1.000
    C1500   C    0.48088   0.73661   0.95677   1.000
    C1501   C    0.67426   0.26339   0.04323   1.000
    C1502   C    0.26339   0.67426   0.51912   1.000
    C1503   C    0.51912   0.04323   0.26339   1.000
    C1504   C    0.04323   0.51912   0.67426   1.000
    C1505   C    0.51912   0.67426   0.04323   1.000
    C1506   C    0.04323   0.26339   0.51912   1.000
    C1507   C    0.67426   0.51912   0.26339   1.000
    C1508   C    0.26339   0.04323   0.67426   1.000
    C1509   C    0.26339   0.51912   0.04323   1.000
    C1510   C    0.67426   0.04323   0.51912   1.000
    C1511   C    0.04323   0.67426   0.26339   1.000
    C1512   C    0.51912   0.26339   0.67426   1.000
    C1513   C    0.67426   0.26339   0.51912   1.000
    C1514   C    0.26339   0.67426   0.04323   1.000
    C1515   C    0.51912   0.04323   0.67426   1.000
    C1516   C    0.04323   0.51912   0.26339   1.000
    C1517   C    0.51912   0.67426   0.26339   1.000
    C1518   C    0.04323   0.26339   0.67426   1.000
    C1519   C    0.67426   0.51912   0.04323   1.000
    C1520   C    0.26339   0.04323   0.51912   1.000
    C1521   C    0.26339   0.51912   0.67426   1.000
    C1522   C    0.67426   0.04323   0.26339   1.000
    C1523   C    0.04323   0.67426   0.51912   1.000
    C1524   C    0.51912   0.26339   0.04323   1.000
    C1525   C    0.32574   0.73661   0.95677   1.000
    C1526   C    0.73661   0.32574   0.48088   1.000
    C1527   C    0.48088   0.95677   0.73661   1.000
    C1528   C    0.95677   0.48088   0.32574   1.000
    C1529   C    0.48088   0.32574   0.95677   1.000
    C1530   C    0.95677   0.73661   0.48088   1.000
    C1531   C    0.32574   0.48088   0.73661   1.000
    C1532   C    0.73661   0.95677   0.32574   1.000
    C1533   C    0.73661   0.48088   0.95677   1.000
    C1534   C    0.32574   0.95677   0.48088   1.000
    C1535   C    0.95677   0.32574   0.73661   1.000
    C1536   C    0.48088   0.73661   0.32574   1.000
    C1537   C    0.33299   0.76101   0.46631   1.000
    C1538   C    0.76101   0.33299   0.93969   1.000
    C1539   C    0.46631   0.93969   0.33299   1.000
    C1540   C    0.93969   0.46631   0.76101   1.000
    C1541   C    0.46631   0.33299   0.76101   1.000
    C1542   C    0.93969   0.76101   0.33299   1.000
    C1543   C    0.33299   0.46631   0.93969   1.000
    C1544   C    0.76101   0.93969   0.46631   1.000
    C1545   C    0.76101   0.46631   0.33299   1.000
    C1546   C    0.33299   0.93969   0.76101   1.000
    C1547   C    0.93969   0.33299   0.46631   1.000
    C1548   C    0.46631   0.76101   0.93969   1.000
    C1549   C    0.66701   0.23899   0.06031   1.000
    C1550   C    0.23899   0.66701   0.53369   1.000
    C1551   C    0.53369   0.06031   0.23899   1.000
    C1552   C    0.06031   0.53369   0.66701   1.000
    C1553   C    0.53369   0.66701   0.06031   1.000
    C1554   C    0.06031   0.23899   0.53369   1.000
    C1555   C    0.66701   0.53369   0.23899   1.000
    C1556   C    0.23899   0.06031   0.66701   1.000
    C1557   C    0.23899   0.53369   0.06031   1.000
    C1558   C    0.66701   0.06031   0.53369   1.000
    C1559   C    0.06031   0.66701   0.23899   1.000
    C1560   C    0.53369   0.23899   0.66701   1.000
    C1561   C    0.66701   0.23899   0.53369   1.000
    C1562   C    0.23899   0.66701   0.06031   1.000
    C1563   C    0.53369   0.06031   0.66701   1.000
    C1564   C    0.06031   0.53369   0.23899   1.000
    C1565   C    0.53369   0.66701   0.23899   1.000
    C1566   C    0.06031   0.23899   0.66701   1.000
    C1567   C    0.66701   0.53369   0.06031   1.000
    C1568   C    0.23899   0.06031   0.53369   1.000
    C1569   C    0.23899   0.53369   0.66701   1.000
    C1570   C    0.66701   0.06031   0.23899   1.000
    C1571   C    0.06031   0.66701   0.53369   1.000
    C1572   C    0.53369   0.23899   0.06031   1.000
    C1573   C    0.33299   0.76101   0.93969   1.000
    C1574   C    0.76101   0.33299   0.46631   1.000
    C1575   C    0.46631   0.93969   0.76101   1.000
    C1576   C    0.93969   0.46631   0.33299   1.000
    C1577   C    0.46631   0.33299   0.93969   1.000
    C1578   C    0.93969   0.76101   0.46631   1.000
    C1579   C    0.33299   0.46631   0.76101   1.000
    C1580   C    0.76101   0.93969   0.33299   1.000
    C1581   C    0.76101   0.46631   0.93969   1.000
    C1582   C    0.33299   0.93969   0.46631   1.000
    C1583   C    0.93969   0.33299   0.76101   1.000
    C1584   C    0.46631   0.76101   0.33299   1.000
    C1585   C    0.36380   0.78370   0.44869   1.000
    C1586   C    0.78370   0.36380   0.90381   1.000
    C1587   C    0.44869   0.90381   0.36380   1.000
    C1588   C    0.90381   0.44869   0.78370   1.000
    C1589   C    0.44869   0.36380   0.78370   1.000
    C1590   C    0.90381   0.78370   0.36380   1.000
    C1591   C    0.36380   0.44869   0.90381   1.000
    C1592   C    0.78370   0.90381   0.44869   1.000
    C1593   C    0.78370   0.44869   0.36380   1.000
    C1594   C    0.36380   0.90381   0.78370   1.000
    C1595   C    0.90381   0.36380   0.44869   1.000
    C1596   C    0.44869   0.78370   0.90381   1.000
    C1597   C    0.63620   0.21630   0.09619   1.000
    C1598   C    0.21630   0.63620   0.55131   1.000
    C1599   C    0.55131   0.09619   0.21630   1.000
    C1600   C    0.09619   0.55131   0.63620   1.000
    C1601   C    0.55131   0.63620   0.09619   1.000
    C1602   C    0.09619   0.21630   0.55131   1.000
    C1603   C    0.63620   0.55131   0.21630   1.000
    C1604   C    0.21630   0.09619   0.63620   1.000
    C1605   C    0.21630   0.55131   0.09619   1.000
    C1606   C    0.63620   0.09619   0.55131   1.000
    C1607   C    0.09619   0.63620   0.21630   1.000
    C1608   C    0.55131   0.21630   0.63620   1.000
    C1609   C    0.63620   0.21630   0.55131   1.000
    C1610   C    0.21630   0.63620   0.09619   1.000
    C1611   C    0.55131   0.09619   0.63620   1.000
    C1612   C    0.09619   0.55131   0.21630   1.000
    C1613   C    0.55131   0.63620   0.21630   1.000
    C1614   C    0.09619   0.21630   0.63620   1.000
    C1615   C    0.63620   0.55131   0.09619   1.000
    C1616   C    0.21630   0.09619   0.55131   1.000
    C1617   C    0.21630   0.55131   0.63620   1.000
    C1618   C    0.63620   0.09619   0.21630   1.000
    C1619   C    0.09619   0.63620   0.55131   1.000
    C1620   C    0.55131   0.21630   0.09619   1.000
    C1621   C    0.36380   0.78370   0.90381   1.000
    C1622   C    0.78370   0.36380   0.44869   1.000
    C1623   C    0.44869   0.90381   0.78370   1.000
    C1624   C    0.90381   0.44869   0.36380   1.000
    C1625   C    0.44869   0.36380   0.90381   1.000
    C1626   C    0.90381   0.78370   0.44869   1.000
    C1627   C    0.36380   0.44869   0.78370   1.000
    C1628   C    0.78370   0.90381   0.36380   1.000
    C1629   C    0.78370   0.44869   0.90381   1.000
    C1630   C    0.36380   0.90381   0.44869   1.000
    C1631   C    0.90381   0.36380   0.78370   1.000
    C1632   C    0.44869   0.78370   0.36380   1.000
    C1633   C    0.35349   0.83222   0.42234   1.000
    C1634   C    0.83222   0.35349   0.89195   1.000
    C1635   C    0.42234   0.89195   0.35349   1.000
    C1636   C    0.89195   0.42234   0.83222   1.000
    C1637   C    0.42234   0.35349   0.83222   1.000
    C1638   C    0.89195   0.83222   0.35349   1.000
    C1639   C    0.35349   0.42234   0.89195   1.000
    C1640   C    0.83222   0.89195   0.42234   1.000
    C1641   C    0.83222   0.42234   0.35349   1.000
    C1642   C    0.35349   0.89195   0.83222   1.000
    C1643   C    0.89195   0.35349   0.42234   1.000
    C1644   C    0.42234   0.83222   0.89195   1.000
    C1645   C    0.64651   0.16778   0.10805   1.000
    C1646   C    0.16778   0.64651   0.57766   1.000
    C1647   C    0.57766   0.10805   0.16778   1.000
    C1648   C    0.10805   0.57766   0.64651   1.000
    C1649   C    0.57766   0.64651   0.10805   1.000
    C1650   C    0.10805   0.16778   0.57766   1.000
    C1651   C    0.64651   0.57766   0.16778   1.000
    C1652   C    0.16778   0.10805   0.64651   1.000
    C1653   C    0.16778   0.57766   0.10805   1.000
    C1654   C    0.64651   0.10805   0.57766   1.000
    C1655   C    0.10805   0.64651   0.16778   1.000
    C1656   C    0.57766   0.16778   0.64651   1.000
    C1657   C    0.64651   0.16778   0.57766   1.000
    C1658   C    0.16778   0.64651   0.10805   1.000
    C1659   C    0.57766   0.10805   0.64651   1.000
    C1660   C    0.10805   0.57766   0.16778   1.000
    C1661   C    0.57766   0.64651   0.16778   1.000
    C1662   C    0.10805   0.16778   0.64651   1.000
    C1663   C    0.64651   0.57766   0.10805   1.000
    C1664   C    0.16778   0.10805   0.57766   1.000
    C1665   C    0.16778   0.57766   0.64651   1.000
    C1666   C    0.64651   0.10805   0.16778   1.000
    C1667   C    0.10805   0.64651   0.57766   1.000
    C1668   C    0.57766   0.16778   0.10805   1.000
    C1669   C    0.35349   0.83222   0.89195   1.000
    C1670   C    0.83222   0.35349   0.42234   1.000
    C1671   C    0.42234   0.89195   0.83222   1.000
    C1672   C    0.89195   0.42234   0.35349   1.000
    C1673   C    0.42234   0.35349   0.89195   1.000
    C1674   C    0.89195   0.83222   0.42234   1.000
    C1675   C    0.35349   0.42234   0.83222   1.000
    C1676   C    0.83222   0.89195   0.35349   1.000
    C1677   C    0.83222   0.42234   0.89195   1.000
    C1678   C    0.35349   0.89195   0.42234   1.000
    C1679   C    0.89195   0.35349   0.83222   1.000
    C1680   C    0.42234   0.83222   0.35349   1.000
    C1681   C    0.34617   0.80783   0.43857   1.000
    C1682   C    0.80783   0.34617   0.90743   1.000
    C1683   C    0.43857   0.90743   0.34617   1.000
    C1684   C    0.90743   0.43857   0.80783   1.000
    C1685   C    0.43857   0.34617   0.80783   1.000
    C1686   C    0.90743   0.80783   0.34617   1.000
    C1687   C    0.34617   0.43857   0.90743   1.000
    C1688   C    0.80783   0.90743   0.43857   1.000
    C1689   C    0.80783   0.43857   0.34617   1.000
    C1690   C    0.34617   0.90743   0.80783   1.000
    C1691   C    0.90743   0.34617   0.43857   1.000
    C1692   C    0.43857   0.80783   0.90743   1.000
    C1693   C    0.65383   0.19217   0.09257   1.000
    C1694   C    0.19217   0.65383   0.56143   1.000
    C1695   C    0.56143   0.09257   0.19217   1.000
    C1696   C    0.09257   0.56143   0.65383   1.000
    C1697   C    0.56143   0.65383   0.09257   1.000
    C1698   C    0.09257   0.19217   0.56143   1.000
    C1699   C    0.65383   0.56143   0.19217   1.000
    C1700   C    0.19217   0.09257   0.65383   1.000
    C1701   C    0.19217   0.56143   0.09257   1.000
    C1702   C    0.65383   0.09257   0.56143   1.000
    C1703   C    0.09257   0.65383   0.19217   1.000
    C1704   C    0.56143   0.19217   0.65383   1.000
    C1705   C    0.65383   0.19217   0.56143   1.000
    C1706   C    0.19217   0.65383   0.09257   1.000
    C1707   C    0.56143   0.09257   0.65383   1.000
    C1708   C    0.09257   0.56143   0.19217   1.000
    C1709   C    0.56143   0.65383   0.19217   1.000
    C1710   C    0.09257   0.19217   0.65383   1.000
    C1711   C    0.65383   0.56143   0.09257   1.000
    C1712   C    0.19217   0.09257   0.56143   1.000
    C1713   C    0.19217   0.56143   0.65383   1.000
    C1714   C    0.65383   0.09257   0.19217   1.000
    C1715   C    0.09257   0.65383   0.56143   1.000
    C1716   C    0.56143   0.19217   0.09257   1.000
    C1717   C    0.34617   0.80783   0.90743   1.000
    C1718   C    0.80783   0.34617   0.43857   1.000
    C1719   C    0.43857   0.90743   0.80783   1.000
    C1720   C    0.90743   0.43857   0.34617   1.000
    C1721   C    0.43857   0.34617   0.90743   1.000
    C1722   C    0.90743   0.80783   0.43857   1.000
    C1723   C    0.34617   0.43857   0.80783   1.000
    C1724   C    0.80783   0.90743   0.34617   1.000
    C1725   C    0.80783   0.43857   0.90743   1.000
    C1726   C    0.34617   0.90743   0.43857   1.000
    C1727   C    0.90743   0.34617   0.80783   1.000
    C1728   C    0.43857   0.80783   0.34617   1.000
    C1729   C    0.31536   0.78518   0.45632   1.000
    C1730   C    0.78518   0.31536   0.94314   1.000
    C1731   C    0.45632   0.94314   0.31536   1.000
    C1732   C    0.94314   0.45632   0.78518   1.000
    C1733   C    0.45632   0.31536   0.78518   1.000
    C1734   C    0.94314   0.78518   0.31536   1.000
    C1735   C    0.31536   0.45632   0.94314   1.000
    C1736   C    0.78518   0.94314   0.45632   1.000
    C1737   C    0.78518   0.45632   0.31536   1.000
    C1738   C    0.31536   0.94314   0.78518   1.000
    C1739   C    0.94314   0.31536   0.45632   1.000
    C1740   C    0.45632   0.78518   0.94314   1.000
    C1741   C    0.68464   0.21482   0.05686   1.000
    C1742   C    0.21482   0.68464   0.54368   1.000
    C1743   C    0.54368   0.05686   0.21482   1.000
    C1744   C    0.05686   0.54368   0.68464   1.000
    C1745   C    0.54368   0.68464   0.05686   1.000
    C1746   C    0.05686   0.21482   0.54368   1.000
    C1747   C    0.68464   0.54368   0.21482   1.000
    C1748   C    0.21482   0.05686   0.68464   1.000
    C1749   C    0.21482   0.54368   0.05686   1.000
    C1750   C    0.68464   0.05686   0.54368   1.000
    C1751   C    0.05686   0.68464   0.21482   1.000
    C1752   C    0.54368   0.21482   0.68464   1.000
    C1753   C    0.68464   0.21482   0.54368   1.000
    C1754   C    0.21482   0.68464   0.05686   1.000
    C1755   C    0.54368   0.05686   0.68464   1.000
    C1756   C    0.05686   0.54368   0.21482   1.000
    C1757   C    0.54368   0.68464   0.21482   1.000
    C1758   C    0.05686   0.21482   0.68464   1.000
    C1759   C    0.68464   0.54368   0.05686   1.000
    C1760   C    0.21482   0.05686   0.54368   1.000
    C1761   C    0.21482   0.54368   0.68464   1.000
    C1762   C    0.68464   0.05686   0.21482   1.000
    C1763   C    0.05686   0.68464   0.54368   1.000
    C1764   C    0.54368   0.21482   0.05686   1.000
    C1765   C    0.31536   0.78518   0.94314   1.000
    C1766   C    0.78518   0.31536   0.45632   1.000
    C1767   C    0.45632   0.94314   0.78518   1.000
    C1768   C    0.94314   0.45632   0.31536   1.000
    C1769   C    0.45632   0.31536   0.94314   1.000
    C1770   C    0.94314   0.78518   0.45632   1.000
    C1771   C    0.31536   0.45632   0.78518   1.000
    C1772   C    0.78518   0.94314   0.31536   1.000
    C1773   C    0.78518   0.45632   0.94314   1.000
    C1774   C    0.31536   0.94314   0.45632   1.000
    C1775   C    0.94314   0.31536   0.78518   1.000
    C1776   C    0.45632   0.78518   0.31536   1.000
    C1777   C    0.32181   0.80811   0.44276   1.000
    C1778   C    0.80811   0.32181   0.92732   1.000
    C1779   C    0.44276   0.92732   0.32181   1.000
    C1780   C    0.92732   0.44276   0.80811   1.000
    C1781   C    0.44276   0.32181   0.80811   1.000
    C1782   C    0.92732   0.80811   0.32181   1.000
    C1783   C    0.32181   0.44276   0.92732   1.000
    C1784   C    0.80811   0.92732   0.44276   1.000
    C1785   C    0.80811   0.44276   0.32181   1.000
    C1786   C    0.32181   0.92732   0.80811   1.000
    C1787   C    0.92732   0.32181   0.44276   1.000
    C1788   C    0.44276   0.80811   0.92732   1.000
    C1789   C    0.67819   0.19189   0.07268   1.000
    C1790   C    0.19189   0.67819   0.55724   1.000
    C1791   C    0.55724   0.07268   0.19189   1.000
    C1792   C    0.07268   0.55724   0.67819   1.000
    C1793   C    0.55724   0.67819   0.07268   1.000
    C1794   C    0.07268   0.19189   0.55724   1.000
    C1795   C    0.67819   0.55724   0.19189   1.000
    C1796   C    0.19189   0.07268   0.67819   1.000
    C1797   C    0.19189   0.55724   0.07268   1.000
    C1798   C    0.67819   0.07268   0.55724   1.000
    C1799   C    0.07268   0.67819   0.19189   1.000
    C1800   C    0.55724   0.19189   0.67819   1.000
    C1801   C    0.67819   0.19189   0.55724   1.000
    C1802   C    0.19189   0.67819   0.07268   1.000
    C1803   C    0.55724   0.07268   0.67819   1.000
    C1804   C    0.07268   0.55724   0.19189   1.000
    C1805   C    0.55724   0.67819   0.19189   1.000
    C1806   C    0.07268   0.19189   0.67819   1.000
    C1807   C    0.67819   0.55724   0.07268   1.000
    C1808   C    0.19189   0.07268   0.55724   1.000
    C1809   C    0.19189   0.55724   0.67819   1.000
    C1810   C    0.67819   0.07268   0.19189   1.000
    C1811   C    0.07268   0.67819   0.55724   1.000
    C1812   C    0.55724   0.19189   0.07268   1.000
    C1813   C    0.32181   0.80811   0.92732   1.000
    C1814   C    0.80811   0.32181   0.44276   1.000
    C1815   C    0.44276   0.92732   0.80811   1.000
    C1816   C    0.92732   0.44276   0.32181   1.000
    C1817   C    0.44276   0.32181   0.92732   1.000
    C1818   C    0.92732   0.80811   0.44276   1.000
    C1819   C    0.32181   0.44276   0.80811   1.000
    C1820   C    0.80811   0.92732   0.32181   1.000
    C1821   C    0.80811   0.44276   0.92732   1.000
    C1822   C    0.32181   0.92732   0.44276   1.000
    C1823   C    0.92732   0.32181   0.80811   1.000
    C1824   C    0.44276   0.80811   0.32181   1.000
    C1825   C    0.30253   0.85184   0.34096   1.000
    C1826   C    0.85184   0.30253   0.00467   1.000
    C1827   C    0.34096   0.00467   0.30253   1.000
    C1828   C    0.00467   0.34096   0.85184   1.000
    C1829   C    0.34096   0.30253   0.85184   1.000
    C1830   C    0.00467   0.85184   0.30253   1.000
    C1831   C    0.30253   0.34096   0.00467   1.000
    C1832   C    0.85184   0.00467   0.34096   1.000
    C1833   C    0.85184   0.34096   0.30253   1.000
    C1834   C    0.30253   0.00467   0.85184   1.000
    C1835   C    0.00467   0.30253   0.34096   1.000
    C1836   C    0.34096   0.85184   0.00467   1.000
    C1837   C    0.69747   0.14816   0.99533   1.000
    C1838   C    0.14816   0.69747   0.65904   1.000
    C1839   C    0.65904   0.99533   0.14816   1.000
    C1840   C    0.99533   0.65904   0.69747   1.000
    C1841   C    0.65904   0.69747   0.99533   1.000
    C1842   C    0.99533   0.14816   0.65904   1.000
    C1843   C    0.69747   0.65904   0.14816   1.000
    C1844   C    0.14816   0.99533   0.69747   1.000
    C1845   C    0.14816   0.65904   0.99533   1.000
    C1846   C    0.69747   0.99533   0.65904   1.000
    C1847   C    0.99533   0.69747   0.14816   1.000
    C1848   C    0.65904   0.14816   0.69747   1.000
    C1849   C    0.69747   0.14816   0.65904   1.000
    C1850   C    0.14816   0.69747   0.99533   1.000
    C1851   C    0.65904   0.99533   0.69747   1.000
    C1852   C    0.99533   0.65904   0.14816   1.000
    C1853   C    0.65904   0.69747   0.14816   1.000
    C1854   C    0.99533   0.14816   0.69747   1.000
    C1855   C    0.69747   0.65904   0.99533   1.000
    C1856   C    0.14816   0.99533   0.65904   1.000
    C1857   C    0.14816   0.65904   0.69747   1.000
    C1858   C    0.69747   0.99533   0.14816   1.000
    C1859   C    0.99533   0.69747   0.65904   1.000
    C1860   C    0.65904   0.14816   0.99533   1.000
    C1861   C    0.30253   0.85184   0.00467   1.000
    C1862   C    0.85184   0.30253   0.34096   1.000
    C1863   C    0.34096   0.00467   0.85184   1.000
    C1864   C    0.00467   0.34096   0.30253   1.000
    C1865   C    0.34096   0.30253   0.00467   1.000
    C1866   C    0.00467   0.85184   0.34096   1.000
    C1867   C    0.30253   0.34096   0.85184   1.000
    C1868   C    0.85184   0.00467   0.30253   1.000
    C1869   C    0.85184   0.34096   0.00467   1.000
    C1870   C    0.30253   0.00467   0.34096   1.000
    C1871   C    0.00467   0.30253   0.85184   1.000
    C1872   C    0.34096   0.85184   0.30253   1.000
    C1873   C    0.31150   0.86129   0.34993   1.000
    C1874   C    0.86129   0.31150   0.97728   1.000
    C1875   C    0.34993   0.97728   0.31150   1.000
    C1876   C    0.97728   0.34993   0.86129   1.000
    C1877   C    0.34993   0.31150   0.86129   1.000
    C1878   C    0.97728   0.86129   0.31150   1.000
    C1879   C    0.31150   0.34993   0.97728   1.000
    C1880   C    0.86129   0.97728   0.34993   1.000
    C1881   C    0.86129   0.34993   0.31150   1.000
    C1882   C    0.31150   0.97728   0.86129   1.000
    C1883   C    0.97728   0.31150   0.34993   1.000
    C1884   C    0.34993   0.86129   0.97728   1.000
    C1885   C    0.68850   0.13871   0.02272   1.000
    C1886   C    0.13871   0.68850   0.65007   1.000
    C1887   C    0.65007   0.02272   0.13871   1.000
    C1888   C    0.02272   0.65007   0.68850   1.000
    C1889   C    0.65007   0.68850   0.02272   1.000
    C1890   C    0.02272   0.13871   0.65007   1.000
    C1891   C    0.68850   0.65007   0.13871   1.000
    C1892   C    0.13871   0.02272   0.68850   1.000
    C1893   C    0.13871   0.65007   0.02272   1.000
    C1894   C    0.68850   0.02272   0.65007   1.000
    C1895   C    0.02272   0.68850   0.13871   1.000
    C1896   C    0.65007   0.13871   0.68850   1.000
    C1897   C    0.68850   0.13871   0.65007   1.000
    C1898   C    0.13871   0.68850   0.02272   1.000
    C1899   C    0.65007   0.02272   0.68850   1.000
    C1900   C    0.02272   0.65007   0.13871   1.000
    C1901   C    0.65007   0.68850   0.13871   1.000
    C1902   C    0.02272   0.13871   0.68850   1.000
    C1903   C    0.68850   0.65007   0.02272   1.000
    C1904   C    0.13871   0.02272   0.65007   1.000
    C1905   C    0.13871   0.65007   0.68850   1.000
    C1906   C    0.68850   0.02272   0.13871   1.000
    C1907   C    0.02272   0.68850   0.65007   1.000
    C1908   C    0.65007   0.13871   0.02272   1.000
    C1909   C    0.31150   0.86129   0.97728   1.000
    C1910   C    0.86129   0.31150   0.34993   1.000
    C1911   C    0.34993   0.97728   0.86129   1.000
    C1912   C    0.97728   0.34993   0.31150   1.000
    C1913   C    0.34993   0.31150   0.97728   1.000
    C1914   C    0.97728   0.86129   0.34993   1.000
    C1915   C    0.31150   0.34993   0.86129   1.000
    C1916   C    0.86129   0.97728   0.31150   1.000
    C1917   C    0.86129   0.34993   0.97728   1.000
    C1918   C    0.31150   0.97728   0.34993   1.000
    C1919   C    0.97728   0.31150   0.86129   1.000
    C1920   C    0.34993   0.86129   0.31150   1.000
    C1921   C    0.38322   0.72472   0.30333   1.000
    C1922   C    0.72472   0.38322   0.08873   1.000
    C1923   C    0.30333   0.08873   0.38322   1.000
    C1924   C    0.08873   0.30333   0.72472   1.000
    C1925   C    0.30333   0.38322   0.72472   1.000
    C1926   C    0.08873   0.72472   0.38322   1.000
    C1927   C    0.38322   0.30333   0.08873   1.000
    C1928   C    0.72472   0.08873   0.30333   1.000
    C1929   C    0.72472   0.30333   0.38322   1.000
    C1930   C    0.38322   0.08873   0.72472   1.000
    C1931   C    0.08873   0.38322   0.30333   1.000
    C1932   C    0.30333   0.72472   0.08873   1.000
    C1933   C    0.61678   0.27528   0.91127   1.000
    C1934   C    0.27528   0.61678   0.69667   1.000
    C1935   C    0.69667   0.91127   0.27528   1.000
    C1936   C    0.91127   0.69667   0.61678   1.000
    C1937   C    0.69667   0.61678   0.91127   1.000
    C1938   C    0.91127   0.27528   0.69667   1.000
    C1939   C    0.61678   0.69667   0.27528   1.000
    C1940   C    0.27528   0.91127   0.61678   1.000
    C1941   C    0.27528   0.69667   0.91127   1.000
    C1942   C    0.61678   0.91127   0.69667   1.000
    C1943   C    0.91127   0.61678   0.27528   1.000
    C1944   C    0.69667   0.27528   0.61678   1.000
    C1945   C    0.61678   0.27528   0.69667   1.000
    C1946   C    0.27528   0.61678   0.91127   1.000
    C1947   C    0.69667   0.91127   0.61678   1.000
    C1948   C    0.91127   0.69667   0.27528   1.000
    C1949   C    0.69667   0.61678   0.27528   1.000
    C1950   C    0.91127   0.27528   0.61678   1.000
    C1951   C    0.61678   0.69667   0.91127   1.000
    C1952   C    0.27528   0.91127   0.69667   1.000
    C1953   C    0.27528   0.69667   0.61678   1.000
    C1954   C    0.61678   0.91127   0.27528   1.000
    C1955   C    0.91127   0.61678   0.69667   1.000
    C1956   C    0.69667   0.27528   0.91127   1.000
    C1957   C    0.38322   0.72472   0.08873   1.000
    C1958   C    0.72472   0.38322   0.30333   1.000
    C1959   C    0.30333   0.08873   0.72472   1.000
    C1960   C    0.08873   0.30333   0.38322   1.000
    C1961   C    0.30333   0.38322   0.08873   1.000
    C1962   C    0.08873   0.72472   0.30333   1.000
    C1963   C    0.38322   0.30333   0.72472   1.000
    C1964   C    0.72472   0.08873   0.38322   1.000
    C1965   C    0.72472   0.30333   0.08873   1.000
    C1966   C    0.38322   0.08873   0.30333   1.000
    C1967   C    0.08873   0.38322   0.72472   1.000
    C1968   C    0.30333   0.72472   0.38322   1.000
    C1969   C    0.35224   0.76697   0.28360   1.000
    C1970   C    0.76697   0.35224   0.09719   1.000
    C1971   C    0.28360   0.09719   0.35224   1.000
    C1972   C    0.09719   0.28360   0.76697   1.000
    C1973   C    0.28360   0.35224   0.76697   1.000
    C1974   C    0.09719   0.76697   0.35224   1.000
    C1975   C    0.35224   0.28360   0.09719   1.000
    C1976   C    0.76697   0.09719   0.28360   1.000
    C1977   C    0.76697   0.28360   0.35224   1.000
    C1978   C    0.35224   0.09719   0.76697   1.000
    C1979   C    0.09719   0.35224   0.28360   1.000
    C1980   C    0.28360   0.76697   0.09719   1.000
    C1981   C    0.64776   0.23303   0.90281   1.000
    C1982   C    0.23303   0.64776   0.71640   1.000
    C1983   C    0.71640   0.90281   0.23303   1.000
    C1984   C    0.90281   0.71640   0.64776   1.000
    C1985   C    0.71640   0.64776   0.90281   1.000
    C1986   C    0.90281   0.23303   0.71640   1.000
    C1987   C    0.64776   0.71640   0.23303   1.000
    C1988   C    0.23303   0.90281   0.64776   1.000
    C1989   C    0.23303   0.71640   0.90281   1.000
    C1990   C    0.64776   0.90281   0.71640   1.000
    C1991   C    0.90281   0.64776   0.23303   1.000
    C1992   C    0.71640   0.23303   0.64776   1.000
    C1993   C    0.64776   0.23303   0.71640   1.000
    C1994   C    0.23303   0.64776   0.90281   1.000
    C1995   C    0.71640   0.90281   0.64776   1.000
    C1996   C    0.90281   0.71640   0.23303   1.000
    C1997   C    0.71640   0.64776   0.23303   1.000
    C1998   C    0.90281   0.23303   0.64776   1.000
    C1999   C    0.64776   0.71640   0.90281   1.000
    C2000   C    0.23303   0.90281   0.71640   1.000
    C2001   C    0.23303   0.71640   0.64776   1.000
    C2002   C    0.64776   0.90281   0.23303   1.000
    C2003   C    0.90281   0.64776   0.71640   1.000
    C2004   C    0.71640   0.23303   0.90281   1.000
    C2005   C    0.35224   0.76697   0.09719   1.000
    C2006   C    0.76697   0.35224   0.28360   1.000
    C2007   C    0.28360   0.09719   0.76697   1.000
    C2008   C    0.09719   0.28360   0.35224   1.000
    C2009   C    0.28360   0.35224   0.09719   1.000
    C2010   C    0.09719   0.76697   0.28360   1.000
    C2011   C    0.35224   0.28360   0.76697   1.000
    C2012   C    0.76697   0.09719   0.35224   1.000
    C2013   C    0.76697   0.28360   0.09719   1.000
    C2014   C    0.35224   0.09719   0.28360   1.000
    C2015   C    0.09719   0.35224   0.76697   1.000
    C2016   C    0.28360   0.76697   0.35224   1.000
    C2017   C    0.37855   0.75034   0.28548   1.000
    C2018   C    0.75034   0.37855   0.08563   1.000
    C2019   C    0.28548   0.08563   0.37855   1.000
    C2020   C    0.08563   0.28548   0.75034   1.000
    C2021   C    0.28548   0.37855   0.75034   1.000
    C2022   C    0.08563   0.75034   0.37855   1.000
    C2023   C    0.37855   0.28548   0.08563   1.000
    C2024   C    0.75034   0.08563   0.28548   1.000
    C2025   C    0.75034   0.28548   0.37855   1.000
    C2026   C    0.37855   0.08563   0.75034   1.000
    C2027   C    0.08563   0.37855   0.28548   1.000
    C2028   C    0.28548   0.75034   0.08563   1.000
    C2029   C    0.62145   0.24966   0.91437   1.000
    C2030   C    0.24966   0.62145   0.71452   1.000
    C2031   C    0.71452   0.91437   0.24966   1.000
    C2032   C    0.91437   0.71452   0.62145   1.000
    C2033   C    0.71452   0.62145   0.91437   1.000
    C2034   C    0.91437   0.24966   0.71452   1.000
    C2035   C    0.62145   0.71452   0.24966   1.000
    C2036   C    0.24966   0.91437   0.62145   1.000
    C2037   C    0.24966   0.71452   0.91437   1.000
    C2038   C    0.62145   0.91437   0.71452   1.000
    C2039   C    0.91437   0.62145   0.24966   1.000
    C2040   C    0.71452   0.24966   0.62145   1.000
    C2041   C    0.62145   0.24966   0.71452   1.000
    C2042   C    0.24966   0.62145   0.91437   1.000
    C2043   C    0.71452   0.91437   0.62145   1.000
    C2044   C    0.91437   0.71452   0.24966   1.000
    C2045   C    0.71452   0.62145   0.24966   1.000
    C2046   C    0.91437   0.24966   0.62145   1.000
    C2047   C    0.62145   0.71452   0.91437   1.000
    C2048   C    0.24966   0.91437   0.71452   1.000
    C2049   C    0.24966   0.71452   0.62145   1.000
    C2050   C    0.62145   0.91437   0.24966   1.000
    C2051   C    0.91437   0.62145   0.71452   1.000
    C2052   C    0.71452   0.24966   0.91437   1.000
    C2053   C    0.37855   0.75034   0.08563   1.000
    C2054   C    0.75034   0.37855   0.28548   1.000
    C2055   C    0.28548   0.08563   0.75034   1.000
    C2056   C    0.08563   0.28548   0.37855   1.000
    C2057   C    0.28548   0.37855   0.08563   1.000
    C2058   C    0.08563   0.75034   0.28548   1.000
    C2059   C    0.37855   0.28548   0.75034   1.000
    C2060   C    0.75034   0.08563   0.37855   1.000
    C2061   C    0.75034   0.28548   0.08563   1.000
    C2062   C    0.37855   0.08563   0.28548   1.000
    C2063   C    0.08563   0.37855   0.75034   1.000
    C2064   C    0.28548   0.75034   0.37855   1.000
    C2065   C    0.40764   0.71010   0.30669   1.000
    C2066   C    0.71010   0.40764   0.07557   1.000
    C2067   C    0.30669   0.07557   0.40764   1.000
    C2068   C    0.07557   0.30669   0.71010   1.000
    C2069   C    0.30669   0.40764   0.71010   1.000
    C2070   C    0.07557   0.71010   0.40764   1.000
    C2071   C    0.40764   0.30669   0.07557   1.000
    C2072   C    0.71010   0.07557   0.30669   1.000
    C2073   C    0.71010   0.30669   0.40764   1.000
    C2074   C    0.40764   0.07557   0.71010   1.000
    C2075   C    0.07557   0.40764   0.30669   1.000
    C2076   C    0.30669   0.71010   0.07557   1.000
    C2077   C    0.59236   0.28990   0.92443   1.000
    C2078   C    0.28990   0.59236   0.69331   1.000
    C2079   C    0.69331   0.92443   0.28990   1.000
    C2080   C    0.92443   0.69331   0.59236   1.000
    C2081   C    0.69331   0.59236   0.92443   1.000
    C2082   C    0.92443   0.28990   0.69331   1.000
    C2083   C    0.59236   0.69331   0.28990   1.000
    C2084   C    0.28990   0.92443   0.59236   1.000
    C2085   C    0.28990   0.69331   0.92443   1.000
    C2086   C    0.59236   0.92443   0.69331   1.000
    C2087   C    0.92443   0.59236   0.28990   1.000
    C2088   C    0.69331   0.28990   0.59236   1.000
    C2089   C    0.59236   0.28990   0.69331   1.000
    C2090   C    0.28990   0.59236   0.92443   1.000
    C2091   C    0.69331   0.92443   0.59236   1.000
    C2092   C    0.92443   0.69331   0.28990   1.000
    C2093   C    0.69331   0.59236   0.28990   1.000
    C2094   C    0.92443   0.28990   0.59236   1.000
    C2095   C    0.59236   0.69331   0.92443   1.000
    C2096   C    0.28990   0.92443   0.69331   1.000
    C2097   C    0.28990   0.69331   0.59236   1.000
    C2098   C    0.59236   0.92443   0.28990   1.000
    C2099   C    0.92443   0.59236   0.69331   1.000
    C2100   C    0.69331   0.28990   0.92443   1.000
    C2101   C    0.40764   0.71010   0.07557   1.000
    C2102   C    0.71010   0.40764   0.30669   1.000
    C2103   C    0.30669   0.07557   0.71010   1.000
    C2104   C    0.07557   0.30669   0.40764   1.000
    C2105   C    0.30669   0.40764   0.07557   1.000
    C2106   C    0.07557   0.71010   0.30669   1.000
    C2107   C    0.40764   0.30669   0.71010   1.000
    C2108   C    0.71010   0.07557   0.40764   1.000
    C2109   C    0.71010   0.30669   0.07557   1.000
    C2110   C    0.40764   0.07557   0.30669   1.000
    C2111   C    0.07557   0.40764   0.71010   1.000
    C2112   C    0.30669   0.71010   0.40764   1.000
    C2113   C    0.29298   0.70333   0.54691   1.000
    C2114   C    0.70333   0.29298   0.95678   1.000
    C2115   C    0.54691   0.95678   0.29298   1.000
    C2116   C    0.95678   0.54691   0.70333   1.000
    C2117   C    0.54691   0.29298   0.70333   1.000
    C2118   C    0.95678   0.70333   0.29298   1.000
    C2119   C    0.29298   0.54691   0.95678   1.000
    C2120   C    0.70333   0.95678   0.54691   1.000
    C2121   C    0.70333   0.54691   0.29298   1.000
    C2122   C    0.29298   0.95678   0.70333   1.000
    C2123   C    0.95678   0.29298   0.54691   1.000
    C2124   C    0.54691   0.70333   0.95678   1.000
    C2125   C    0.70702   0.29667   0.04322   1.000
    C2126   C    0.29667   0.70702   0.45309   1.000
    C2127   C    0.45309   0.04322   0.29667   1.000
    C2128   C    0.04322   0.45309   0.70702   1.000
    C2129   C    0.45309   0.70702   0.04322   1.000
    C2130   C    0.04322   0.29667   0.45309   1.000
    C2131   C    0.70702   0.45309   0.29667   1.000
    C2132   C    0.29667   0.04322   0.70702   1.000
    C2133   C    0.29667   0.45309   0.04322   1.000
    C2134   C    0.70702   0.04322   0.45309   1.000
    C2135   C    0.04322   0.70702   0.29667   1.000
    C2136   C    0.45309   0.29667   0.70702   1.000
    C2137   C    0.70702   0.29667   0.45309   1.000
    C2138   C    0.29667   0.70702   0.04322   1.000
    C2139   C    0.45309   0.04322   0.70702   1.000
    C2140   C    0.04322   0.45309   0.29667   1.000
    C2141   C    0.45309   0.70702   0.29667   1.000
    C2142   C    0.04322   0.29667   0.70702   1.000
    C2143   C    0.70702   0.45309   0.04322   1.000
    C2144   C    0.29667   0.04322   0.45309   1.000
    C2145   C    0.29667   0.45309   0.70702   1.000
    C2146   C    0.70702   0.04322   0.29667   1.000
    C2147   C    0.04322   0.70702   0.45309   1.000
    C2148   C    0.45309   0.29667   0.04322   1.000
    C2149   C    0.29298   0.70333   0.95678   1.000
    C2150   C    0.70333   0.29298   0.54691   1.000
    C2151   C    0.54691   0.95678   0.70333   1.000
    C2152   C    0.95678   0.54691   0.29298   1.000
    C2153   C    0.54691   0.29298   0.95678   1.000
    C2154   C    0.95678   0.70333   0.54691   1.000
    C2155   C    0.29298   0.54691   0.70333   1.000
    C2156   C    0.70333   0.95678   0.29298   1.000
    C2157   C    0.70333   0.54691   0.95678   1.000
    C2158   C    0.29298   0.95678   0.54691   1.000
    C2159   C    0.95678   0.29298   0.70333   1.000
    C2160   C    0.54691   0.70333   0.29298   1.000
    C2161   C    0.42773   0.72089   0.29224   1.000
    C2162   C    0.72089   0.42773   0.05914   1.000
    C2163   C    0.29224   0.05914   0.42773   1.000
    C2164   C    0.05914   0.29224   0.72089   1.000
    C2165   C    0.29224   0.42773   0.72089   1.000
    C2166   C    0.05914   0.72089   0.42773   1.000
    C2167   C    0.42773   0.29224   0.05914   1.000
    C2168   C    0.72089   0.05914   0.29224   1.000
    C2169   C    0.72089   0.29224   0.42773   1.000
    C2170   C    0.42773   0.05914   0.72089   1.000
    C2171   C    0.05914   0.42773   0.29224   1.000
    C2172   C    0.29224   0.72089   0.05914   1.000
    C2173   C    0.57227   0.27911   0.94086   1.000
    C2174   C    0.27911   0.57227   0.70776   1.000
    C2175   C    0.70776   0.94086   0.27911   1.000
    C2176   C    0.94086   0.70776   0.57227   1.000
    C2177   C    0.70776   0.57227   0.94086   1.000
    C2178   C    0.94086   0.27911   0.70776   1.000
    C2179   C    0.57227   0.70776   0.27911   1.000
    C2180   C    0.27911   0.94086   0.57227   1.000
    C2181   C    0.27911   0.70776   0.94086   1.000
    C2182   C    0.57227   0.94086   0.70776   1.000
    C2183   C    0.94086   0.57227   0.27911   1.000
    C2184   C    0.70776   0.27911   0.57227   1.000
    C2185   C    0.57227   0.27911   0.70776   1.000
    C2186   C    0.27911   0.57227   0.94086   1.000
    C2187   C    0.70776   0.94086   0.57227   1.000
    C2188   C    0.94086   0.70776   0.27911   1.000
    C2189   C    0.70776   0.57227   0.27911   1.000
    C2190   C    0.94086   0.27911   0.57227   1.000
    C2191   C    0.57227   0.70776   0.94086   1.000
    C2192   C    0.27911   0.94086   0.70776   1.000
    C2193   C    0.27911   0.70776   0.57227   1.000
    C2194   C    0.57227   0.94086   0.27911   1.000
    C2195   C    0.94086   0.57227   0.70776   1.000
    C2196   C    0.70776   0.27911   0.94086   1.000
    C2197   C    0.42773   0.72089   0.05914   1.000
    C2198   C    0.72089   0.42773   0.29224   1.000
    C2199   C    0.29224   0.05914   0.72089   1.000
    C2200   C    0.05914   0.29224   0.42773   1.000
    C2201   C    0.29224   0.42773   0.05914   1.000
    C2202   C    0.05914   0.72089   0.29224   1.000
    C2203   C    0.42773   0.29224   0.72089   1.000
    C2204   C    0.72089   0.05914   0.42773   1.000
    C2205   C    0.72089   0.29224   0.05914   1.000
    C2206   C    0.42773   0.05914   0.29224   1.000
    C2207   C    0.05914   0.42773   0.72089   1.000
    C2208   C    0.29224   0.72089   0.42773   1.000
    C2209   C    0.39896   0.76063   0.27044   1.000
    C2210   C    0.76063   0.39896   0.06997   1.000
    C2211   C    0.27044   0.06997   0.39896   1.000
    C2212   C    0.06997   0.27044   0.76063   1.000
    C2213   C    0.27044   0.39896   0.76063   1.000
    C2214   C    0.06997   0.76063   0.39896   1.000
    C2215   C    0.39896   0.27044   0.06997   1.000
    C2216   C    0.76063   0.06997   0.27044   1.000
    C2217   C    0.76063   0.27044   0.39896   1.000
    C2218   C    0.39896   0.06997   0.76063   1.000
    C2219   C    0.06997   0.39896   0.27044   1.000
    C2220   C    0.27044   0.76063   0.06997   1.000
    C2221   C    0.60104   0.23937   0.93003   1.000
    C2222   C    0.23937   0.60104   0.72956   1.000
    C2223   C    0.72956   0.93003   0.23937   1.000
    C2224   C    0.93003   0.72956   0.60104   1.000
    C2225   C    0.72956   0.60104   0.93003   1.000
    C2226   C    0.93003   0.23937   0.72956   1.000
    C2227   C    0.60104   0.72956   0.23937   1.000
    C2228   C    0.23937   0.93003   0.60104   1.000
    C2229   C    0.23937   0.72956   0.93003   1.000
    C2230   C    0.60104   0.93003   0.72956   1.000
    C2231   C    0.93003   0.60104   0.23937   1.000
    C2232   C    0.72956   0.23937   0.60104   1.000
    C2233   C    0.60104   0.23937   0.72956   1.000
    C2234   C    0.23937   0.60104   0.93003   1.000
    C2235   C    0.72956   0.93003   0.60104   1.000
    C2236   C    0.93003   0.72956   0.23937   1.000
    C2237   C    0.72956   0.60104   0.23937   1.000
    C2238   C    0.93003   0.23937   0.60104   1.000
    C2239   C    0.60104   0.72956   0.93003   1.000
    C2240   C    0.23937   0.93003   0.72956   1.000
    C2241   C    0.23937   0.72956   0.60104   1.000
    C2242   C    0.60104   0.93003   0.23937   1.000
    C2243   C    0.93003   0.60104   0.72956   1.000
    C2244   C    0.72956   0.23937   0.93003   1.000
    C2245   C    0.39896   0.76063   0.06997   1.000
    C2246   C    0.76063   0.39896   0.27044   1.000
    C2247   C    0.27044   0.06997   0.76063   1.000
    C2248   C    0.06997   0.27044   0.39896   1.000
    C2249   C    0.27044   0.39896   0.06997   1.000
    C2250   C    0.06997   0.76063   0.27044   1.000
    C2251   C    0.39896   0.27044   0.76063   1.000
    C2252   C    0.76063   0.06997   0.39896   1.000
    C2253   C    0.76063   0.27044   0.06997   1.000
    C2254   C    0.39896   0.06997   0.27044   1.000
    C2255   C    0.06997   0.39896   0.76063   1.000
    C2256   C    0.27044   0.76063   0.39896   1.000
    C2257   C    0.42319   0.74611   0.27372   1.000
    C2258   C    0.74611   0.42319   0.05698   1.000
    C2259   C    0.27372   0.05698   0.42319   1.000
    C2260   C    0.05698   0.27372   0.74611   1.000
    C2261   C    0.27372   0.42319   0.74611   1.000
    C2262   C    0.05698   0.74611   0.42319   1.000
    C2263   C    0.42319   0.27372   0.05698   1.000
    C2264   C    0.74611   0.05698   0.27372   1.000
    C2265   C    0.74611   0.27372   0.42319   1.000
    C2266   C    0.42319   0.05698   0.74611   1.000
    C2267   C    0.05698   0.42319   0.27372   1.000
    C2268   C    0.27372   0.74611   0.05698   1.000
    C2269   C    0.57681   0.25389   0.94302   1.000
    C2270   C    0.25389   0.57681   0.72628   1.000
    C2271   C    0.72628   0.94302   0.25389   1.000
    C2272   C    0.94302   0.72628   0.57681   1.000
    C2273   C    0.72628   0.57681   0.94302   1.000
    C2274   C    0.94302   0.25389   0.72628   1.000
    C2275   C    0.57681   0.72628   0.25389   1.000
    C2276   C    0.25389   0.94302   0.57681   1.000
    C2277   C    0.25389   0.72628   0.94302   1.000
    C2278   C    0.57681   0.94302   0.72628   1.000
    C2279   C    0.94302   0.57681   0.25389   1.000
    C2280   C    0.72628   0.25389   0.57681   1.000
    C2281   C    0.57681   0.25389   0.72628   1.000
    C2282   C    0.25389   0.57681   0.94302   1.000
    C2283   C    0.72628   0.94302   0.57681   1.000
    C2284   C    0.94302   0.72628   0.25389   1.000
    C2285   C    0.72628   0.57681   0.25389   1.000
    C2286   C    0.94302   0.25389   0.57681   1.000
    C2287   C    0.57681   0.72628   0.94302   1.000
    C2288   C    0.25389   0.94302   0.72628   1.000
    C2289   C    0.25389   0.72628   0.57681   1.000
    C2290   C    0.57681   0.94302   0.25389   1.000
    C2291   C    0.94302   0.57681   0.72628   1.000
    C2292   C    0.72628   0.25389   0.94302   1.000
    C2293   C    0.42319   0.74611   0.05698   1.000
    C2294   C    0.74611   0.42319   0.27372   1.000
    C2295   C    0.27372   0.05698   0.74611   1.000
    C2296   C    0.05698   0.27372   0.42319   1.000
    C2297   C    0.27372   0.42319   0.05698   1.000
    C2298   C    0.05698   0.74611   0.27372   1.000
    C2299   C    0.42319   0.27372   0.74611   1.000
    C2300   C    0.74611   0.05698   0.42319   1.000
    C2301   C    0.74611   0.27372   0.05698   1.000
    C2302   C    0.42319   0.05698   0.27372   1.000
    C2303   C    0.05698   0.42319   0.74611   1.000
    C2304   C    0.27372   0.74611   0.42319   1.000
    H2305   H    0.14934   0.04691   0.21815   1.000
    H2306   H    0.04691   0.14934   0.08560   1.000
    H2307   H    0.21815   0.08560   0.14934   1.000
    H2308   H    0.08560   0.21815   0.04691   1.000
    H2309   H    0.21815   0.14934   0.04691   1.000
    H2310   H    0.08560   0.04691   0.14934   1.000
    H2311   H    0.14934   0.21815   0.08560   1.000
    H2312   H    0.04691   0.08560   0.21815   1.000
    H2313   H    0.04691   0.21815   0.14934   1.000
    H2314   H    0.14934   0.08560   0.04691   1.000
    H2315   H    0.08560   0.14934   0.21815   1.000
    H2316   H    0.21815   0.04691   0.08560   1.000
    H2317   H    0.85066   0.95309   0.91440   1.000
    H2318   H    0.95309   0.85066   0.78185   1.000
    H2319   H    0.78185   0.91440   0.95309   1.000
    H2320   H    0.91440   0.78185   0.85066   1.000
    H2321   H    0.78185   0.85066   0.91440   1.000
    H2322   H    0.91440   0.95309   0.78185   1.000
    H2323   H    0.85066   0.78185   0.95309   1.000
    H2324   H    0.95309   0.91440   0.85066   1.000
    H2325   H    0.95309   0.78185   0.91440   1.000
    H2326   H    0.85066   0.91440   0.78185   1.000
    H2327   H    0.91440   0.85066   0.95309   1.000
    H2328   H    0.78185   0.95309   0.85066   1.000
    H2329   H    0.85066   0.95309   0.78185   1.000
    H2330   H    0.95309   0.85066   0.91440   1.000
    H2331   H    0.78185   0.91440   0.85066   1.000
    H2332   H    0.91440   0.78185   0.95309   1.000
    H2333   H    0.78185   0.85066   0.95309   1.000
    H2334   H    0.91440   0.95309   0.85066   1.000
    H2335   H    0.85066   0.78185   0.91440   1.000
    H2336   H    0.95309   0.91440   0.78185   1.000
    H2337   H    0.95309   0.78185   0.85066   1.000
    H2338   H    0.85066   0.91440   0.95309   1.000
    H2339   H    0.91440   0.85066   0.78185   1.000
    H2340   H    0.78185   0.95309   0.91440   1.000
    H2341   H    0.14934   0.04691   0.08560   1.000
    H2342   H    0.04691   0.14934   0.21815   1.000
    H2343   H    0.21815   0.08560   0.04691   1.000
    H2344   H    0.08560   0.21815   0.14934   1.000
    H2345   H    0.21815   0.14934   0.08560   1.000
    H2346   H    0.08560   0.04691   0.21815   1.000
    H2347   H    0.14934   0.21815   0.04691   1.000
    H2348   H    0.04691   0.08560   0.14934   1.000
    H2349   H    0.04691   0.21815   0.08560   1.000
    H2350   H    0.14934   0.08560   0.21815   1.000
    H2351   H    0.08560   0.14934   0.04691   1.000
    H2352   H    0.21815   0.04691   0.14934   1.000
    H2353   H    0.21621   0.88871   0.28502   1.000
    H2354   H    0.88871   0.21621   0.11006   1.000
    H2355   H    0.28502   0.11006   0.21621   1.000
    H2356   H    0.11006   0.28502   0.88871   1.000
    H2357   H    0.28502   0.21621   0.88871   1.000
    H2358   H    0.11006   0.88871   0.21621   1.000
    H2359   H    0.21621   0.28502   0.11006   1.000
    H2360   H    0.88871   0.11006   0.28502   1.000
    H2361   H    0.88871   0.28502   0.21621   1.000
    H2362   H    0.21621   0.11006   0.88871   1.000
    H2363   H    0.11006   0.21621   0.28502   1.000
    H2364   H    0.28502   0.88871   0.11006   1.000
    H2365   H    0.78379   0.11129   0.88994   1.000
    H2366   H    0.11129   0.78379   0.71498   1.000
    H2367   H    0.71498   0.88994   0.11129   1.000
    H2368   H    0.88994   0.71498   0.78379   1.000
    H2369   H    0.71498   0.78379   0.88994   1.000
    H2370   H    0.88994   0.11129   0.71498   1.000
    H2371   H    0.78379   0.71498   0.11129   1.000
    H2372   H    0.11129   0.88994   0.78379   1.000
    H2373   H    0.11129   0.71498   0.88994   1.000
    H2374   H    0.78379   0.88994   0.71498   1.000
    H2375   H    0.88994   0.78379   0.11129   1.000
    H2376   H    0.71498   0.11129   0.78379   1.000
    H2377   H    0.78379   0.11129   0.71498   1.000
    H2378   H    0.11129   0.78379   0.88994   1.000
    H2379   H    0.71498   0.88994   0.78379   1.000
    H2380   H    0.88994   0.71498   0.11129   1.000
    H2381   H    0.71498   0.78379   0.11129   1.000
    H2382   H    0.88994   0.11129   0.78379   1.000
    H2383   H    0.78379   0.71498   0.88994   1.000
    H2384   H    0.11129   0.88994   0.71498   1.000
    H2385   H    0.11129   0.71498   0.78379   1.000
    H2386   H    0.78379   0.88994   0.11129   1.000
    H2387   H    0.88994   0.78379   0.71498   1.000
    H2388   H    0.71498   0.11129   0.88994   1.000
    H2389   H    0.21621   0.88871   0.11006   1.000
    H2390   H    0.88871   0.21621   0.28502   1.000
    H2391   H    0.28502   0.11006   0.88871   1.000
    H2392   H    0.11006   0.28502   0.21621   1.000
    H2393   H    0.28502   0.21621   0.11006   1.000
    H2394   H    0.11006   0.88871   0.28502   1.000
    H2395   H    0.21621   0.28502   0.88871   1.000
    H2396   H    0.88871   0.11006   0.21621   1.000
    H2397   H    0.88871   0.28502   0.11006   1.000
    H2398   H    0.21621   0.11006   0.28502   1.000
    H2399   H    0.11006   0.21621   0.88871   1.000
    H2400   H    0.28502   0.88871   0.21621   1.000
    H2401   H    0.19010   0.92634   0.25890   1.000
    H2402   H    0.92634   0.19010   0.12466   1.000
    H2403   H    0.25890   0.12466   0.19010   1.000
    H2404   H    0.12466   0.25890   0.92634   1.000
    H2405   H    0.25890   0.19010   0.92634   1.000
    H2406   H    0.12466   0.92634   0.19010   1.000
    H2407   H    0.19010   0.25890   0.12466   1.000
    H2408   H    0.92634   0.12466   0.25890   1.000
    H2409   H    0.92634   0.25890   0.19010   1.000
    H2410   H    0.19010   0.12466   0.92634   1.000
    H2411   H    0.12466   0.19010   0.25890   1.000
    H2412   H    0.25890   0.92634   0.12466   1.000
    H2413   H    0.80990   0.07366   0.87534   1.000
    H2414   H    0.07366   0.80990   0.74110   1.000
    H2415   H    0.74110   0.87534   0.07366   1.000
    H2416   H    0.87534   0.74110   0.80990   1.000
    H2417   H    0.74110   0.80990   0.87534   1.000
    H2418   H    0.87534   0.07366   0.74110   1.000
    H2419   H    0.80990   0.74110   0.07366   1.000
    H2420   H    0.07366   0.87534   0.80990   1.000
    H2421   H    0.07366   0.74110   0.87534   1.000
    H2422   H    0.80990   0.87534   0.74110   1.000
    H2423   H    0.87534   0.80990   0.07366   1.000
    H2424   H    0.74110   0.07366   0.80990   1.000
    H2425   H    0.80990   0.07366   0.74110   1.000
    H2426   H    0.07366   0.80990   0.87534   1.000
    H2427   H    0.74110   0.87534   0.80990   1.000
    H2428   H    0.87534   0.74110   0.07366   1.000
    H2429   H    0.74110   0.80990   0.07366   1.000
    H2430   H    0.87534   0.07366   0.80990   1.000
    H2431   H    0.80990   0.74110   0.87534   1.000
    H2432   H    0.07366   0.87534   0.74110   1.000
    H2433   H    0.07366   0.74110   0.80990   1.000
    H2434   H    0.80990   0.87534   0.07366   1.000
    H2435   H    0.87534   0.80990   0.74110   1.000
    H2436   H    0.74110   0.07366   0.87534   1.000
    H2437   H    0.19010   0.92634   0.12466   1.000
    H2438   H    0.92634   0.19010   0.25890   1.000
    H2439   H    0.25890   0.12466   0.92634   1.000
    H2440   H    0.12466   0.25890   0.19010   1.000
    H2441   H    0.25890   0.19010   0.12466   1.000
    H2442   H    0.12466   0.92634   0.25890   1.000
    H2443   H    0.19010   0.25890   0.92634   1.000
    H2444   H    0.92634   0.12466   0.19010   1.000
    H2445   H    0.92634   0.25890   0.12466   1.000
    H2446   H    0.19010   0.12466   0.25890   1.000
    H2447   H    0.12466   0.19010   0.92634   1.000
    H2448   H    0.25890   0.92634   0.19010   1.000
    H2449   H    0.23843   0.75796   0.30377   1.000
    H2450   H    0.75796   0.23843   0.19984   1.000
    H2451   H    0.30377   0.19984   0.23843   1.000
    H2452   H    0.19984   0.30377   0.75796   1.000
    H2453   H    0.30377   0.23843   0.75796   1.000
    H2454   H    0.19984   0.75796   0.23843   1.000
    H2455   H    0.23843   0.30377   0.19984   1.000
    H2456   H    0.75796   0.19984   0.30377   1.000
    H2457   H    0.75796   0.30377   0.23843   1.000
    H2458   H    0.23843   0.19984   0.75796   1.000
    H2459   H    0.19984   0.23843   0.30377   1.000
    H2460   H    0.30377   0.75796   0.19984   1.000
    H2461   H    0.76157   0.24204   0.80016   1.000
    H2462   H    0.24204   0.76157   0.69623   1.000
    H2463   H    0.69623   0.80016   0.24204   1.000
    H2464   H    0.80016   0.69623   0.76157   1.000
    H2465   H    0.69623   0.76157   0.80016   1.000
    H2466   H    0.80016   0.24204   0.69623   1.000
    H2467   H    0.76157   0.69623   0.24204   1.000
    H2468   H    0.24204   0.80016   0.76157   1.000
    H2469   H    0.24204   0.69623   0.80016   1.000
    H2470   H    0.76157   0.80016   0.69623   1.000
    H2471   H    0.80016   0.76157   0.24204   1.000
    H2472   H    0.69623   0.24204   0.76157   1.000
    H2473   H    0.76157   0.24204   0.69623   1.000
    H2474   H    0.24204   0.76157   0.80016   1.000
    H2475   H    0.69623   0.80016   0.76157   1.000
    H2476   H    0.80016   0.69623   0.24204   1.000
    H2477   H    0.69623   0.76157   0.24204   1.000
    H2478   H    0.80016   0.24204   0.76157   1.000
    H2479   H    0.76157   0.69623   0.80016   1.000
    H2480   H    0.24204   0.80016   0.69623   1.000
    H2481   H    0.24204   0.69623   0.76157   1.000
    H2482   H    0.76157   0.80016   0.24204   1.000
    H2483   H    0.80016   0.76157   0.69623   1.000
    H2484   H    0.69623   0.24204   0.80016   1.000
    H2485   H    0.23843   0.75796   0.19984   1.000
    H2486   H    0.75796   0.23843   0.30377   1.000
    H2487   H    0.30377   0.19984   0.75796   1.000
    H2488   H    0.19984   0.30377   0.23843   1.000
    H2489   H    0.30377   0.23843   0.19984   1.000
    H2490   H    0.19984   0.75796   0.30377   1.000
    H2491   H    0.23843   0.30377   0.75796   1.000
    H2492   H    0.75796   0.19984   0.23843   1.000
    H2493   H    0.75796   0.30377   0.19984   1.000
    H2494   H    0.23843   0.19984   0.30377   1.000
    H2495   H    0.19984   0.23843   0.75796   1.000
    H2496   H    0.30377   0.75796   0.23843   1.000
    H2497   H    0.19308   0.82760   0.32518   1.000
    H2498   H    0.82760   0.19308   0.15414   1.000
    H2499   H    0.32518   0.15414   0.19308   1.000
    H2500   H    0.15414   0.32518   0.82760   1.000
    H2501   H    0.32518   0.19308   0.82760   1.000
    H2502   H    0.15414   0.82760   0.19308   1.000
    H2503   H    0.19308   0.32518   0.15414   1.000
    H2504   H    0.82760   0.15414   0.32518   1.000
    H2505   H    0.82760   0.32518   0.19308   1.000
    H2506   H    0.19308   0.15414   0.82760   1.000
    H2507   H    0.15414   0.19308   0.32518   1.000
    H2508   H    0.32518   0.82760   0.15414   1.000
    H2509   H    0.80692   0.17240   0.84586   1.000
    H2510   H    0.17240   0.80692   0.67482   1.000
    H2511   H    0.67482   0.84586   0.17240   1.000
    H2512   H    0.84586   0.67482   0.80692   1.000
    H2513   H    0.67482   0.80692   0.84586   1.000
    H2514   H    0.84586   0.17240   0.67482   1.000
    H2515   H    0.80692   0.67482   0.17240   1.000
    H2516   H    0.17240   0.84586   0.80692   1.000
    H2517   H    0.17240   0.67482   0.84586   1.000
    H2518   H    0.80692   0.84586   0.67482   1.000
    H2519   H    0.84586   0.80692   0.17240   1.000
    H2520   H    0.67482   0.17240   0.80692   1.000
    H2521   H    0.80692   0.17240   0.67482   1.000
    H2522   H    0.17240   0.80692   0.84586   1.000
    H2523   H    0.67482   0.84586   0.80692   1.000
    H2524   H    0.84586   0.67482   0.17240   1.000
    H2525   H    0.67482   0.80692   0.17240   1.000
    H2526   H    0.84586   0.17240   0.80692   1.000
    H2527   H    0.80692   0.67482   0.84586   1.000
    H2528   H    0.17240   0.84586   0.67482   1.000
    H2529   H    0.17240   0.67482   0.80692   1.000
    H2530   H    0.80692   0.84586   0.17240   1.000
    H2531   H    0.84586   0.80692   0.67482   1.000
    H2532   H    0.67482   0.17240   0.84586   1.000
    H2533   H    0.19308   0.82760   0.15414   1.000
    H2534   H    0.82760   0.19308   0.32518   1.000
    H2535   H    0.32518   0.15414   0.82760   1.000
    H2536   H    0.15414   0.32518   0.19308   1.000
    H2537   H    0.32518   0.19308   0.15414   1.000
    H2538   H    0.15414   0.82760   0.32518   1.000
    H2539   H    0.19308   0.32518   0.82760   1.000
    H2540   H    0.82760   0.15414   0.19308   1.000
    H2541   H    0.82760   0.32518   0.15414   1.000
    H2542   H    0.19308   0.15414   0.32518   1.000
    H2543   H    0.15414   0.19308   0.82760   1.000
    H2544   H    0.32518   0.82760   0.19308   1.000
    H2545   H    0.41460   0.67393   0.45341   1.000
    H2546   H    0.67393   0.41460   0.95806   1.000
    H2547   H    0.45341   0.95806   0.41460   1.000
    H2548   H    0.95806   0.45341   0.67393   1.000
    H2549   H    0.45341   0.41460   0.67393   1.000
    H2550   H    0.95806   0.67393   0.41460   1.000
    H2551   H    0.41460   0.45341   0.95806   1.000
    H2552   H    0.67393   0.95806   0.45341   1.000
    H2553   H    0.67393   0.45341   0.41460   1.000
    H2554   H    0.41460   0.95806   0.67393   1.000
    H2555   H    0.95806   0.41460   0.45341   1.000
    H2556   H    0.45341   0.67393   0.95806   1.000
    H2557   H    0.58540   0.32607   0.04194   1.000
    H2558   H    0.32607   0.58540   0.54659   1.000
    H2559   H    0.54659   0.04194   0.32607   1.000
    H2560   H    0.04194   0.54659   0.58540   1.000
    H2561   H    0.54659   0.58540   0.04194   1.000
    H2562   H    0.04194   0.32607   0.54659   1.000
    H2563   H    0.58540   0.54659   0.32607   1.000
    H2564   H    0.32607   0.04194   0.58540   1.000
    H2565   H    0.32607   0.54659   0.04194   1.000
    H2566   H    0.58540   0.04194   0.54659   1.000
    H2567   H    0.04194   0.58540   0.32607   1.000
    H2568   H    0.54659   0.32607   0.58540   1.000
    H2569   H    0.58540   0.32607   0.54659   1.000
    H2570   H    0.32607   0.58540   0.04194   1.000
    H2571   H    0.54659   0.04194   0.58540   1.000
    H2572   H    0.04194   0.54659   0.32607   1.000
    H2573   H    0.54659   0.58540   0.32607   1.000
    H2574   H    0.04194   0.32607   0.58540   1.000
    H2575   H    0.58540   0.54659   0.04194   1.000
    H2576   H    0.32607   0.04194   0.54659   1.000
    H2577   H    0.32607   0.54659   0.58540   1.000
    H2578   H    0.58540   0.04194   0.32607   1.000
    H2579   H    0.04194   0.58540   0.54659   1.000
    H2580   H    0.54659   0.32607   0.04194   1.000
    H2581   H    0.41460   0.67393   0.95806   1.000
    H2582   H    0.67393   0.41460   0.45341   1.000
    H2583   H    0.45341   0.95806   0.67393   1.000
    H2584   H    0.95806   0.45341   0.41460   1.000
    H2585   H    0.45341   0.41460   0.95806   1.000
    H2586   H    0.95806   0.67393   0.45341   1.000
    H2587   H    0.41460   0.45341   0.67393   1.000
    H2588   H    0.67393   0.95806   0.41460   1.000
    H2589   H    0.67393   0.45341   0.95806   1.000
    H2590   H    0.41460   0.95806   0.45341   1.000
    H2591   H    0.95806   0.41460   0.67393   1.000
    H2592   H    0.45341   0.67393   0.41460   1.000
    H2593   H    0.38685   0.64522   0.42576   1.000
    H2594   H    0.64522   0.38685   0.04217   1.000
    H2595   H    0.42576   0.04217   0.38685   1.000
    H2596   H    0.04217   0.42576   0.64522   1.000
    H2597   H    0.42576   0.38685   0.64522   1.000
    H2598   H    0.04217   0.64522   0.38685   1.000
    H2599   H    0.38685   0.42576   0.04217   1.000
    H2600   H    0.64522   0.04217   0.42576   1.000
    H2601   H    0.64522   0.42576   0.38685   1.000
    H2602   H    0.38685   0.04217   0.64522   1.000
    H2603   H    0.04217   0.38685   0.42576   1.000
    H2604   H    0.42576   0.64522   0.04217   1.000
    H2605   H    0.61315   0.35478   0.95783   1.000
    H2606   H    0.35478   0.61315   0.57424   1.000
    H2607   H    0.57424   0.95783   0.35478   1.000
    H2608   H    0.95783   0.57424   0.61315   1.000
    H2609   H    0.57424   0.61315   0.95783   1.000
    H2610   H    0.95783   0.35478   0.57424   1.000
    H2611   H    0.61315   0.57424   0.35478   1.000
    H2612   H    0.35478   0.95783   0.61315   1.000
    H2613   H    0.35478   0.57424   0.95783   1.000
    H2614   H    0.61315   0.95783   0.57424   1.000
    H2615   H    0.95783   0.61315   0.35478   1.000
    H2616   H    0.57424   0.35478   0.61315   1.000
    H2617   H    0.61315   0.35478   0.57424   1.000
    H2618   H    0.35478   0.61315   0.95783   1.000
    H2619   H    0.57424   0.95783   0.61315   1.000
    H2620   H    0.95783   0.57424   0.35478   1.000
    H2621   H    0.57424   0.61315   0.35478   1.000
    H2622   H    0.95783   0.35478   0.61315   1.000
    H2623   H    0.61315   0.57424   0.95783   1.000
    H2624   H    0.35478   0.95783   0.57424   1.000
    H2625   H    0.35478   0.57424   0.61315   1.000
    H2626   H    0.61315   0.95783   0.35478   1.000
    H2627   H    0.95783   0.61315   0.57424   1.000
    H2628   H    0.57424   0.35478   0.95783   1.000
    H2629   H    0.38685   0.64522   0.04217   1.000
    H2630   H    0.64522   0.38685   0.42576   1.000
    H2631   H    0.42576   0.04217   0.64522   1.000
    H2632   H    0.04217   0.42576   0.38685   1.000
    H2633   H    0.42576   0.38685   0.04217   1.000
    H2634   H    0.04217   0.64522   0.42576   1.000
    H2635   H    0.38685   0.42576   0.64522   1.000
    H2636   H    0.64522   0.04217   0.38685   1.000
    H2637   H    0.64522   0.42576   0.04217   1.000
    H2638   H    0.38685   0.04217   0.42576   1.000
    H2639   H    0.04217   0.38685   0.64522   1.000
    H2640   H    0.42576   0.64522   0.38685   1.000
    H2641   H    0.37144   0.74258   0.46974   1.000
    H2642   H    0.74258   0.37144   0.91624   1.000
    H2643   H    0.46974   0.91624   0.37144   1.000
    H2644   H    0.91624   0.46974   0.74258   1.000
    H2645   H    0.46974   0.37144   0.74258   1.000
    H2646   H    0.91624   0.74258   0.37144   1.000
    H2647   H    0.37144   0.46974   0.91624   1.000
    H2648   H    0.74258   0.91624   0.46974   1.000
    H2649   H    0.74258   0.46974   0.37144   1.000
    H2650   H    0.37144   0.91624   0.74258   1.000
    H2651   H    0.91624   0.37144   0.46974   1.000
    H2652   H    0.46974   0.74258   0.91624   1.000
    H2653   H    0.62856   0.25742   0.08376   1.000
    H2654   H    0.25742   0.62856   0.53026   1.000
    H2655   H    0.53026   0.08376   0.25742   1.000
    H2656   H    0.08376   0.53026   0.62856   1.000
    H2657   H    0.53026   0.62856   0.08376   1.000
    H2658   H    0.08376   0.25742   0.53026   1.000
    H2659   H    0.62856   0.53026   0.25742   1.000
    H2660   H    0.25742   0.08376   0.62856   1.000
    H2661   H    0.25742   0.53026   0.08376   1.000
    H2662   H    0.62856   0.08376   0.53026   1.000
    H2663   H    0.08376   0.62856   0.25742   1.000
    H2664   H    0.53026   0.25742   0.62856   1.000
    H2665   H    0.62856   0.25742   0.53026   1.000
    H2666   H    0.25742   0.62856   0.08376   1.000
    H2667   H    0.53026   0.08376   0.62856   1.000
    H2668   H    0.08376   0.53026   0.25742   1.000
    H2669   H    0.53026   0.62856   0.25742   1.000
    H2670   H    0.08376   0.25742   0.62856   1.000
    H2671   H    0.62856   0.53026   0.08376   1.000
    H2672   H    0.25742   0.08376   0.53026   1.000
    H2673   H    0.25742   0.53026   0.62856   1.000
    H2674   H    0.62856   0.08376   0.25742   1.000
    H2675   H    0.08376   0.62856   0.53026   1.000
    H2676   H    0.53026   0.25742   0.08376   1.000
    H2677   H    0.37144   0.74258   0.91624   1.000
    H2678   H    0.74258   0.37144   0.46974   1.000
    H2679   H    0.46974   0.91624   0.74258   1.000
    H2680   H    0.91624   0.46974   0.37144   1.000
    H2681   H    0.46974   0.37144   0.91624   1.000
    H2682   H    0.91624   0.74258   0.46974   1.000
    H2683   H    0.37144   0.46974   0.74258   1.000
    H2684   H    0.74258   0.91624   0.37144   1.000
    H2685   H    0.74258   0.46974   0.91624   1.000
    H2686   H    0.37144   0.91624   0.46974   1.000
    H2687   H    0.91624   0.37144   0.74258   1.000
    H2688   H    0.46974   0.74258   0.37144   1.000
    H2689   H    0.38282   0.78249   0.44578   1.000
    H2690   H    0.78249   0.38282   0.88891   1.000
    H2691   H    0.44578   0.88891   0.38282   1.000
    H2692   H    0.88891   0.44578   0.78249   1.000
    H2693   H    0.44578   0.38282   0.78249   1.000
    H2694   H    0.88891   0.78249   0.38282   1.000
    H2695   H    0.38282   0.44578   0.88891   1.000
    H2696   H    0.78249   0.88891   0.44578   1.000
    H2697   H    0.78249   0.44578   0.38282   1.000
    H2698   H    0.38282   0.88891   0.78249   1.000
    H2699   H    0.88891   0.38282   0.44578   1.000
    H2700   H    0.44578   0.78249   0.88891   1.000
    H2701   H    0.61718   0.21751   0.11109   1.000
    H2702   H    0.21751   0.61718   0.55422   1.000
    H2703   H    0.55422   0.11109   0.21751   1.000
    H2704   H    0.11109   0.55422   0.61718   1.000
    H2705   H    0.55422   0.61718   0.11109   1.000
    H2706   H    0.11109   0.21751   0.55422   1.000
    H2707   H    0.61718   0.55422   0.21751   1.000
    H2708   H    0.21751   0.11109   0.61718   1.000
    H2709   H    0.21751   0.55422   0.11109   1.000
    H2710   H    0.61718   0.11109   0.55422   1.000
    H2711   H    0.11109   0.61718   0.21751   1.000
    H2712   H    0.55422   0.21751   0.61718   1.000
    H2713   H    0.61718   0.21751   0.55422   1.000
    H2714   H    0.21751   0.61718   0.11109   1.000
    H2715   H    0.55422   0.11109   0.61718   1.000
    H2716   H    0.11109   0.55422   0.21751   1.000
    H2717   H    0.55422   0.61718   0.21751   1.000
    H2718   H    0.11109   0.21751   0.61718   1.000
    H2719   H    0.61718   0.55422   0.11109   1.000
    H2720   H    0.21751   0.11109   0.55422   1.000
    H2721   H    0.21751   0.55422   0.61718   1.000
    H2722   H    0.61718   0.11109   0.21751   1.000
    H2723   H    0.11109   0.61718   0.55422   1.000
    H2724   H    0.55422   0.21751   0.11109   1.000
    H2725   H    0.38282   0.78249   0.88891   1.000
    H2726   H    0.78249   0.38282   0.44578   1.000
    H2727   H    0.44578   0.88891   0.78249   1.000
    H2728   H    0.88891   0.44578   0.38282   1.000
    H2729   H    0.44578   0.38282   0.88891   1.000
    H2730   H    0.88891   0.78249   0.44578   1.000
    H2731   H    0.38282   0.44578   0.78249   1.000
    H2732   H    0.78249   0.88891   0.38282   1.000
    H2733   H    0.78249   0.44578   0.88891   1.000
    H2734   H    0.38282   0.88891   0.44578   1.000
    H2735   H    0.88891   0.38282   0.78249   1.000
    H2736   H    0.44578   0.78249   0.38282   1.000
    H2737   H    0.29644   0.78645   0.45889   1.000
    H2738   H    0.78645   0.29644   0.95822   1.000
    H2739   H    0.45889   0.95822   0.29644   1.000
    H2740   H    0.95822   0.45889   0.78645   1.000
    H2741   H    0.45889   0.29644   0.78645   1.000
    H2742   H    0.95822   0.78645   0.29644   1.000
    H2743   H    0.29644   0.45889   0.95822   1.000
    H2744   H    0.78645   0.95822   0.45889   1.000
    H2745   H    0.78645   0.45889   0.29644   1.000
    H2746   H    0.29644   0.95822   0.78645   1.000
    H2747   H    0.95822   0.29644   0.45889   1.000
    H2748   H    0.45889   0.78645   0.95822   1.000
    H2749   H    0.70356   0.21355   0.04178   1.000
    H2750   H    0.21355   0.70356   0.54111   1.000
    H2751   H    0.54111   0.04178   0.21355   1.000
    H2752   H    0.04178   0.54111   0.70356   1.000
    H2753   H    0.54111   0.70356   0.04178   1.000
    H2754   H    0.04178   0.21355   0.54111   1.000
    H2755   H    0.70356   0.54111   0.21355   1.000
    H2756   H    0.21355   0.04178   0.70356   1.000
    H2757   H    0.21355   0.54111   0.04178   1.000
    H2758   H    0.70356   0.04178   0.54111   1.000
    H2759   H    0.04178   0.70356   0.21355   1.000
    H2760   H    0.54111   0.21355   0.70356   1.000
    H2761   H    0.70356   0.21355   0.54111   1.000
    H2762   H    0.21355   0.70356   0.04178   1.000
    H2763   H    0.54111   0.04178   0.70356   1.000
    H2764   H    0.04178   0.54111   0.21355   1.000
    H2765   H    0.54111   0.70356   0.21355   1.000
    H2766   H    0.04178   0.21355   0.70356   1.000
    H2767   H    0.70356   0.54111   0.04178   1.000
    H2768   H    0.21355   0.04178   0.54111   1.000
    H2769   H    0.21355   0.54111   0.70356   1.000
    H2770   H    0.70356   0.04178   0.21355   1.000
    H2771   H    0.04178   0.70356   0.54111   1.000
    H2772   H    0.54111   0.21355   0.04178   1.000
    H2773   H    0.29644   0.78645   0.95822   1.000
    H2774   H    0.78645   0.29644   0.45889   1.000
    H2775   H    0.45889   0.95822   0.78645   1.000
    H2776   H    0.95822   0.45889   0.29644   1.000
    H2777   H    0.45889   0.29644   0.95822   1.000
    H2778   H    0.95822   0.78645   0.45889   1.000
    H2779   H    0.29644   0.45889   0.78645   1.000
    H2780   H    0.78645   0.95822   0.29644   1.000
    H2781   H    0.78645   0.45889   0.95822   1.000
    H2782   H    0.29644   0.95822   0.45889   1.000
    H2783   H    0.95822   0.29644   0.78645   1.000
    H2784   H    0.45889   0.78645   0.29644   1.000
    H2785   H    0.30768   0.82611   0.43521   1.000
    H2786   H    0.82611   0.30768   0.93100   1.000
    H2787   H    0.43521   0.93100   0.30768   1.000
    H2788   H    0.93100   0.43521   0.82611   1.000
    H2789   H    0.43521   0.30768   0.82611   1.000
    H2790   H    0.93100   0.82611   0.30768   1.000
    H2791   H    0.30768   0.43521   0.93100   1.000
    H2792   H    0.82611   0.93100   0.43521   1.000
    H2793   H    0.82611   0.43521   0.30768   1.000
    H2794   H    0.30768   0.93100   0.82611   1.000
    H2795   H    0.93100   0.30768   0.43521   1.000
    H2796   H    0.43521   0.82611   0.93100   1.000
    H2797   H    0.69232   0.17389   0.06900   1.000
    H2798   H    0.17389   0.69232   0.56479   1.000
    H2799   H    0.56479   0.06900   0.17389   1.000
    H2800   H    0.06900   0.56479   0.69232   1.000
    H2801   H    0.56479   0.69232   0.06900   1.000
    H2802   H    0.06900   0.17389   0.56479   1.000
    H2803   H    0.69232   0.56479   0.17389   1.000
    H2804   H    0.17389   0.06900   0.69232   1.000
    H2805   H    0.17389   0.56479   0.06900   1.000
    H2806   H    0.69232   0.06900   0.56479   1.000
    H2807   H    0.06900   0.69232   0.17389   1.000
    H2808   H    0.56479   0.17389   0.69232   1.000
    H2809   H    0.69232   0.17389   0.56479   1.000
    H2810   H    0.17389   0.69232   0.06900   1.000
    H2811   H    0.56479   0.06900   0.69232   1.000
    H2812   H    0.06900   0.56479   0.17389   1.000
    H2813   H    0.56479   0.69232   0.17389   1.000
    H2814   H    0.06900   0.17389   0.69232   1.000
    H2815   H    0.69232   0.56479   0.06900   1.000
    H2816   H    0.17389   0.06900   0.56479   1.000
    H2817   H    0.17389   0.56479   0.69232   1.000
    H2818   H    0.69232   0.06900   0.17389   1.000
    H2819   H    0.06900   0.69232   0.56479   1.000
    H2820   H    0.56479   0.17389   0.06900   1.000
    H2821   H    0.30768   0.82611   0.93100   1.000
    H2822   H    0.82611   0.30768   0.43521   1.000
    H2823   H    0.43521   0.93100   0.82611   1.000
    H2824   H    0.93100   0.43521   0.30768   1.000
    H2825   H    0.43521   0.30768   0.93100   1.000
    H2826   H    0.93100   0.82611   0.43521   1.000
    H2827   H    0.30768   0.43521   0.82611   1.000
    H2828   H    0.82611   0.93100   0.30768   1.000
    H2829   H    0.82611   0.43521   0.93100   1.000
    H2830   H    0.30768   0.93100   0.43521   1.000
    H2831   H    0.93100   0.30768   0.82611   1.000
    H2832   H    0.43521   0.82611   0.30768   1.000
    H2833   H    0.28412   0.84831   0.35281   1.000
    H2834   H    0.84831   0.28412   0.01476   1.000
    H2835   H    0.35281   0.01476   0.28412   1.000
    H2836   H    0.01476   0.35281   0.84831   1.000
    H2837   H    0.35281   0.28412   0.84831   1.000
    H2838   H    0.01476   0.84831   0.28412   1.000
    H2839   H    0.28412   0.35281   0.01476   1.000
    H2840   H    0.84831   0.01476   0.35281   1.000
    H2841   H    0.84831   0.35281   0.28412   1.000
    H2842   H    0.28412   0.01476   0.84831   1.000
    H2843   H    0.01476   0.28412   0.35281   1.000
    H2844   H    0.35281   0.84831   0.01476   1.000
    H2845   H    0.71588   0.15169   0.98524   1.000
    H2846   H    0.15169   0.71588   0.64719   1.000
    H2847   H    0.64719   0.98524   0.15169   1.000
    H2848   H    0.98524   0.64719   0.71588   1.000
    H2849   H    0.64719   0.71588   0.98524   1.000
    H2850   H    0.98524   0.15169   0.64719   1.000
    H2851   H    0.71588   0.64719   0.15169   1.000
    H2852   H    0.15169   0.98524   0.71588   1.000
    H2853   H    0.15169   0.64719   0.98524   1.000
    H2854   H    0.71588   0.98524   0.64719   1.000
    H2855   H    0.98524   0.71588   0.15169   1.000
    H2856   H    0.64719   0.15169   0.71588   1.000
    H2857   H    0.71588   0.15169   0.64719   1.000
    H2858   H    0.15169   0.71588   0.98524   1.000
    H2859   H    0.64719   0.98524   0.71588   1.000
    H2860   H    0.98524   0.64719   0.15169   1.000
    H2861   H    0.64719   0.71588   0.15169   1.000
    H2862   H    0.98524   0.15169   0.71588   1.000
    H2863   H    0.71588   0.64719   0.98524   1.000
    H2864   H    0.15169   0.98524   0.64719   1.000
    H2865   H    0.15169   0.64719   0.71588   1.000
    H2866   H    0.71588   0.98524   0.15169   1.000
    H2867   H    0.98524   0.71588   0.64719   1.000
    H2868   H    0.64719   0.15169   0.98524   1.000
    H2869   H    0.28412   0.84831   0.01476   1.000
    H2870   H    0.84831   0.28412   0.35281   1.000
    H2871   H    0.35281   0.01476   0.84831   1.000
    H2872   H    0.01476   0.35281   0.28412   1.000
    H2873   H    0.35281   0.28412   0.01476   1.000
    H2874   H    0.01476   0.84831   0.35281   1.000
    H2875   H    0.28412   0.35281   0.84831   1.000
    H2876   H    0.84831   0.01476   0.28412   1.000
    H2877   H    0.84831   0.35281   0.01476   1.000
    H2878   H    0.28412   0.01476   0.35281   1.000
    H2879   H    0.01476   0.28412   0.84831   1.000
    H2880   H    0.35281   0.84831   0.28412   1.000
    H2881   H    0.29976   0.86459   0.36846   1.000
    H2882   H    0.86459   0.29976   0.96719   1.000
    H2883   H    0.36846   0.96719   0.29976   1.000
    H2884   H    0.96719   0.36846   0.86459   1.000
    H2885   H    0.36846   0.29976   0.86459   1.000
    H2886   H    0.96719   0.86459   0.29976   1.000
    H2887   H    0.29976   0.36846   0.96719   1.000
    H2888   H    0.86459   0.96719   0.36846   1.000
    H2889   H    0.86459   0.36846   0.29976   1.000
    H2890   H    0.29976   0.96719   0.86459   1.000
    H2891   H    0.96719   0.29976   0.36846   1.000
    H2892   H    0.36846   0.86459   0.96719   1.000
    H2893   H    0.70024   0.13541   0.03281   1.000
    H2894   H    0.13541   0.70024   0.63154   1.000
    H2895   H    0.63154   0.03281   0.13541   1.000
    H2896   H    0.03281   0.63154   0.70024   1.000
    H2897   H    0.63154   0.70024   0.03281   1.000
    H2898   H    0.03281   0.13541   0.63154   1.000
    H2899   H    0.70024   0.63154   0.13541   1.000
    H2900   H    0.13541   0.03281   0.70024   1.000
    H2901   H    0.13541   0.63154   0.03281   1.000
    H2902   H    0.70024   0.03281   0.63154   1.000
    H2903   H    0.03281   0.70024   0.13541   1.000
    H2904   H    0.63154   0.13541   0.70024   1.000
    H2905   H    0.70024   0.13541   0.63154   1.000
    H2906   H    0.13541   0.70024   0.03281   1.000
    H2907   H    0.63154   0.03281   0.70024   1.000
    H2908   H    0.03281   0.63154   0.13541   1.000
    H2909   H    0.63154   0.70024   0.13541   1.000
    H2910   H    0.03281   0.13541   0.70024   1.000
    H2911   H    0.70024   0.63154   0.03281   1.000
    H2912   H    0.13541   0.03281   0.63154   1.000
    H2913   H    0.13541   0.63154   0.70024   1.000
    H2914   H    0.70024   0.03281   0.13541   1.000
    H2915   H    0.03281   0.70024   0.63154   1.000
    H2916   H    0.63154   0.13541   0.03281   1.000
    H2917   H    0.29976   0.86459   0.96719   1.000
    H2918   H    0.86459   0.29976   0.36846   1.000
    H2919   H    0.36846   0.96719   0.86459   1.000
    H2920   H    0.96719   0.36846   0.29976   1.000
    H2921   H    0.36846   0.29976   0.96719   1.000
    H2922   H    0.96719   0.86459   0.36846   1.000
    H2923   H    0.29976   0.36846   0.86459   1.000
    H2924   H    0.86459   0.96719   0.29976   1.000
    H2925   H    0.86459   0.36846   0.96719   1.000
    H2926   H    0.29976   0.96719   0.36846   1.000
    H2927   H    0.96719   0.29976   0.86459   1.000
    H2928   H    0.36846   0.86459   0.29976   1.000
    H2929   H    0.36779   0.71628   0.31527   1.000
    H2930   H    0.71628   0.36779   0.10066   1.000
    H2931   H    0.31527   0.10066   0.36779   1.000
    H2932   H    0.10066   0.31527   0.71628   1.000
    H2933   H    0.31527   0.36779   0.71628   1.000
    H2934   H    0.10066   0.71628   0.36779   1.000
    H2935   H    0.36779   0.31527   0.10066   1.000
    H2936   H    0.71628   0.10066   0.31527   1.000
    H2937   H    0.71628   0.31527   0.36779   1.000
    H2938   H    0.36779   0.10066   0.71628   1.000
    H2939   H    0.10066   0.36779   0.31527   1.000
    H2940   H    0.31527   0.71628   0.10066   1.000
    H2941   H    0.63221   0.28372   0.89934   1.000
    H2942   H    0.28372   0.63221   0.68473   1.000
    H2943   H    0.68473   0.89934   0.28372   1.000
    H2944   H    0.89934   0.68473   0.63221   1.000
    H2945   H    0.68473   0.63221   0.89934   1.000
    H2946   H    0.89934   0.28372   0.68473   1.000
    H2947   H    0.63221   0.68473   0.28372   1.000
    H2948   H    0.28372   0.89934   0.63221   1.000
    H2949   H    0.28372   0.68473   0.89934   1.000
    H2950   H    0.63221   0.89934   0.68473   1.000
    H2951   H    0.89934   0.63221   0.28372   1.000
    H2952   H    0.68473   0.28372   0.63221   1.000
    H2953   H    0.63221   0.28372   0.68473   1.000
    H2954   H    0.28372   0.63221   0.89934   1.000
    H2955   H    0.68473   0.89934   0.63221   1.000
    H2956   H    0.89934   0.68473   0.28372   1.000
    H2957   H    0.68473   0.63221   0.28372   1.000
    H2958   H    0.89934   0.28372   0.63221   1.000
    H2959   H    0.63221   0.68473   0.89934   1.000
    H2960   H    0.28372   0.89934   0.68473   1.000
    H2961   H    0.28372   0.68473   0.63221   1.000
    H2962   H    0.63221   0.89934   0.28372   1.000
    H2963   H    0.89934   0.63221   0.68473   1.000
    H2964   H    0.68473   0.28372   0.89934   1.000
    H2965   H    0.36779   0.71628   0.10066   1.000
    H2966   H    0.71628   0.36779   0.31527   1.000
    H2967   H    0.31527   0.10066   0.71628   1.000
    H2968   H    0.10066   0.31527   0.36779   1.000
    H2969   H    0.31527   0.36779   0.10066   1.000
    H2970   H    0.10066   0.71628   0.31527   1.000
    H2971   H    0.36779   0.31527   0.71628   1.000
    H2972   H    0.71628   0.10066   0.36779   1.000
    H2973   H    0.71628   0.31527   0.10066   1.000
    H2974   H    0.36779   0.10066   0.31527   1.000
    H2975   H    0.10066   0.36779   0.71628   1.000
    H2976   H    0.31527   0.71628   0.36779   1.000
    H2977   H    0.41056   0.69074   0.32105   1.000
    H2978   H    0.69074   0.41056   0.07765   1.000
    H2979   H    0.32105   0.07765   0.41056   1.000
    H2980   H    0.07765   0.32105   0.69074   1.000
    H2981   H    0.32105   0.41056   0.69074   1.000
    H2982   H    0.07765   0.69074   0.41056   1.000
    H2983   H    0.41056   0.32105   0.07765   1.000
    H2984   H    0.69074   0.07765   0.32105   1.000
    H2985   H    0.69074   0.32105   0.41056   1.000
    H2986   H    0.41056   0.07765   0.69074   1.000
    H2987   H    0.07765   0.41056   0.32105   1.000
    H2988   H    0.32105   0.69074   0.07765   1.000
    H2989   H    0.58944   0.30926   0.92235   1.000
    H2990   H    0.30926   0.58944   0.67895   1.000
    H2991   H    0.67895   0.92235   0.30926   1.000
    H2992   H    0.92235   0.67895   0.58944   1.000
    H2993   H    0.67895   0.58944   0.92235   1.000
    H2994   H    0.92235   0.30926   0.67895   1.000
    H2995   H    0.58944   0.67895   0.30926   1.000
    H2996   H    0.30926   0.92235   0.58944   1.000
    H2997   H    0.30926   0.67895   0.92235   1.000
    H2998   H    0.58944   0.92235   0.67895   1.000
    H2999   H    0.92235   0.58944   0.30926   1.000
    H3000   H    0.67895   0.30926   0.58944   1.000
    H3001   H    0.58944   0.30926   0.67895   1.000
    H3002   H    0.30926   0.58944   0.92235   1.000
    H3003   H    0.67895   0.92235   0.58944   1.000
    H3004   H    0.92235   0.67895   0.30926   1.000
    H3005   H    0.67895   0.58944   0.30926   1.000
    H3006   H    0.92235   0.30926   0.58944   1.000
    H3007   H    0.58944   0.67895   0.92235   1.000
    H3008   H    0.30926   0.92235   0.67895   1.000
    H3009   H    0.30926   0.67895   0.58944   1.000
    H3010   H    0.58944   0.92235   0.30926   1.000
    H3011   H    0.92235   0.58944   0.67895   1.000
    H3012   H    0.67895   0.30926   0.92235   1.000
    H3013   H    0.41056   0.69074   0.07765   1.000
    H3014   H    0.69074   0.41056   0.32105   1.000
    H3015   H    0.32105   0.07765   0.69074   1.000
    H3016   H    0.07765   0.32105   0.41056   1.000
    H3017   H    0.32105   0.41056   0.07765   1.000
    H3018   H    0.07765   0.69074   0.32105   1.000
    H3019   H    0.41056   0.32105   0.69074   1.000
    H3020   H    0.69074   0.07765   0.41056   1.000
    H3021   H    0.69074   0.32105   0.07765   1.000
    H3022   H    0.41056   0.07765   0.32105   1.000
    H3023   H    0.07765   0.41056   0.69074   1.000
    H3024   H    0.32105   0.69074   0.41056   1.000
    H3025   H    0.39611   0.78016   0.25638   1.000
    H3026   H    0.78016   0.39611   0.06735   1.000
    H3027   H    0.25638   0.06735   0.39611   1.000
    H3028   H    0.06735   0.25638   0.78016   1.000
    H3029   H    0.25638   0.39611   0.78016   1.000
    H3030   H    0.06735   0.78016   0.39611   1.000
    H3031   H    0.39611   0.25638   0.06735   1.000
    H3032   H    0.78016   0.06735   0.25638   1.000
    H3033   H    0.78016   0.25638   0.39611   1.000
    H3034   H    0.39611   0.06735   0.78016   1.000
    H3035   H    0.06735   0.39611   0.25638   1.000
    H3036   H    0.25638   0.78016   0.06735   1.000
    H3037   H    0.60389   0.21984   0.93265   1.000
    H3038   H    0.21984   0.60389   0.74362   1.000
    H3039   H    0.74362   0.93265   0.21984   1.000
    H3040   H    0.93265   0.74362   0.60389   1.000
    H3041   H    0.74362   0.60389   0.93265   1.000
    H3042   H    0.93265   0.21984   0.74362   1.000
    H3043   H    0.60389   0.74362   0.21984   1.000
    H3044   H    0.21984   0.93265   0.60389   1.000
    H3045   H    0.21984   0.74362   0.93265   1.000
    H3046   H    0.60389   0.93265   0.74362   1.000
    H3047   H    0.93265   0.60389   0.21984   1.000
    H3048   H    0.74362   0.21984   0.60389   1.000
    H3049   H    0.60389   0.21984   0.74362   1.000
    H3050   H    0.21984   0.60389   0.93265   1.000
    H3051   H    0.74362   0.93265   0.60389   1.000
    H3052   H    0.93265   0.74362   0.21984   1.000
    H3053   H    0.74362   0.60389   0.21984   1.000
    H3054   H    0.93265   0.21984   0.60389   1.000
    H3055   H    0.60389   0.74362   0.93265   1.000
    H3056   H    0.21984   0.93265   0.74362   1.000
    H3057   H    0.21984   0.74362   0.60389   1.000
    H3058   H    0.60389   0.93265   0.21984   1.000
    H3059   H    0.93265   0.60389   0.74362   1.000
    H3060   H    0.74362   0.21984   0.93265   1.000
    H3061   H    0.39611   0.78016   0.06735   1.000
    H3062   H    0.78016   0.39611   0.25638   1.000
    H3063   H    0.25638   0.06735   0.78016   1.000
    H3064   H    0.06735   0.25638   0.39611   1.000
    H3065   H    0.25638   0.39611   0.06735   1.000
    H3066   H    0.06735   0.78016   0.25638   1.000
    H3067   H    0.39611   0.25638   0.78016   1.000
    H3068   H    0.78016   0.06735   0.39611   1.000
    H3069   H    0.78016   0.25638   0.06735   1.000
    H3070   H    0.39611   0.06735   0.25638   1.000
    H3071   H    0.06735   0.39611   0.78016   1.000
    H3072   H    0.25638   0.78016   0.39611   1.000
    H3073   H    0.43829   0.75498   0.26195   1.000
    H3074   H    0.75498   0.43829   0.04478   1.000
    H3075   H    0.26195   0.04478   0.43829   1.000
    H3076   H    0.04478   0.26195   0.75498   1.000
    H3077   H    0.26195   0.43829   0.75498   1.000
    H3078   H    0.04478   0.75498   0.43829   1.000
    H3079   H    0.43829   0.26195   0.04478   1.000
    H3080   H    0.75498   0.04478   0.26195   1.000
    H3081   H    0.75498   0.26195   0.43829   1.000
    H3082   H    0.43829   0.04478   0.75498   1.000
    H3083   H    0.04478   0.43829   0.26195   1.000
    H3084   H    0.26195   0.75498   0.04478   1.000
    H3085   H    0.56171   0.24502   0.95522   1.000
    H3086   H    0.24502   0.56171   0.73805   1.000
    H3087   H    0.73805   0.95522   0.24502   1.000
    H3088   H    0.95522   0.73805   0.56171   1.000
    H3089   H    0.73805   0.56171   0.95522   1.000
    H3090   H    0.95522   0.24502   0.73805   1.000
    H3091   H    0.56171   0.73805   0.24502   1.000
    H3092   H    0.24502   0.95522   0.56171   1.000
    H3093   H    0.24502   0.73805   0.95522   1.000
    H3094   H    0.56171   0.95522   0.73805   1.000
    H3095   H    0.95522   0.56171   0.24502   1.000
    H3096   H    0.73805   0.24502   0.56171   1.000
    H3097   H    0.56171   0.24502   0.73805   1.000
    H3098   H    0.24502   0.56171   0.95522   1.000
    H3099   H    0.73805   0.95522   0.56171   1.000
    H3100   H    0.95522   0.73805   0.24502   1.000
    H3101   H    0.73805   0.56171   0.24502   1.000
    H3102   H    0.95522   0.24502   0.56171   1.000
    H3103   H    0.56171   0.73805   0.95522   1.000
    H3104   H    0.24502   0.95522   0.73805   1.000
    H3105   H    0.24502   0.73805   0.56171   1.000
    H3106   H    0.56171   0.95522   0.24502   1.000
    H3107   H    0.95522   0.56171   0.73805   1.000
    H3108   H    0.73805   0.24502   0.95522   1.000
    H3109   H    0.43829   0.75498   0.04478   1.000
    H3110   H    0.75498   0.43829   0.26195   1.000
    H3111   H    0.26195   0.04478   0.75498   1.000
    H3112   H    0.04478   0.26195   0.43829   1.000
    H3113   H    0.26195   0.43829   0.04478   1.000
    H3114   H    0.04478   0.75498   0.26195   1.000
    H3115   H    0.43829   0.26195   0.75498   1.000
    H3116   H    0.75498   0.04478   0.43829   1.000
    H3117   H    0.75498   0.26195   0.04478   1.000
    H3118   H    0.43829   0.04478   0.26195   1.000
    H3119   H    0.04478   0.43829   0.75498   1.000
    H3120   H    0.26195   0.75498   0.43829   1.000
    Cr3121  Cr   0.15359   0.98617   0.20665   1.000
    Cr3122  Cr   0.98617   0.15359   0.15359   1.000
    Cr3123  Cr   0.20665   0.15359   0.15359   1.000
    Cr3124  Cr   0.15359   0.20665   0.98617   1.000
    Cr3125  Cr   0.20665   0.15359   0.98617   1.000
    Cr3126  Cr   0.15359   0.98617   0.15359   1.000
    Cr3127  Cr   0.15359   0.20665   0.15359   1.000
    Cr3128  Cr   0.98617   0.15359   0.20665   1.000
    Cr3129  Cr   0.98617   0.20665   0.15359   1.000
    Cr3130  Cr   0.15359   0.15359   0.98617   1.000
    Cr3131  Cr   0.15359   0.15359   0.20665   1.000
    Cr3132  Cr   0.20665   0.98617   0.15359   1.000
    Cr3133  Cr   0.84641   0.01383   0.84641   1.000
    Cr3134  Cr   0.01383   0.84641   0.79335   1.000
    Cr3135  Cr   0.79335   0.84641   0.01383   1.000
    Cr3136  Cr   0.84641   0.79335   0.84641   1.000
    Cr3137  Cr   0.79335   0.84641   0.84641   1.000
    Cr3138  Cr   0.84641   0.01383   0.79335   1.000
    Cr3139  Cr   0.84641   0.79335   0.01383   1.000
    Cr3140  Cr   0.01383   0.84641   0.84641   1.000
    Cr3141  Cr   0.01383   0.79335   0.84641   1.000
    Cr3142  Cr   0.84641   0.84641   0.79335   1.000
    Cr3143  Cr   0.84641   0.84641   0.01383   1.000
    Cr3144  Cr   0.79335   0.01383   0.84641   1.000
    Cr3145  Cr   0.28472   0.71528   0.50000   1.000
    Cr3146  Cr   0.71528   0.28472   0.00000   1.000
    Cr3147  Cr   0.50000   0.00000   0.28472   1.000
    Cr3148  Cr   0.00000   0.50000   0.71528   1.000
    Cr3149  Cr   0.50000   0.28472   0.71528   1.000
    Cr3150  Cr   0.00000   0.71528   0.28472   1.000
    Cr3151  Cr   0.28472   0.50000   0.00000   1.000
    Cr3152  Cr   0.71528   0.00000   0.50000   1.000
    Cr3153  Cr   0.71528   0.50000   0.28472   1.000
    Cr3154  Cr   0.28472   0.00000   0.71528   1.000
    Cr3155  Cr   0.00000   0.28472   0.50000   1.000
    Cr3156  Cr   0.50000   0.71528   0.00000   1.000
    Cr3157  Cr   0.71528   0.28472   0.50000   1.000
    Cr3158  Cr   0.28472   0.71528   0.00000   1.000
    Cr3159  Cr   0.50000   0.00000   0.71528   1.000
    Cr3160  Cr   0.00000   0.50000   0.28472   1.000
    Cr3161  Cr   0.50000   0.71528   0.28472   1.000
    Cr3162  Cr   0.00000   0.28472   0.71528   1.000
    Cr3163  Cr   0.71528   0.50000   0.00000   1.000
    Cr3164  Cr   0.28472   0.00000   0.50000   1.000
    Cr3165  Cr   0.28472   0.50000   0.71528   1.000
    Cr3166  Cr   0.71528   0.00000   0.28472   1.000
    Cr3167  Cr   0.00000   0.71528   0.50000   1.000
    Cr3168  Cr   0.50000   0.28472   0.00000   1.000
    O3169   O    0.31528   0.68472   0.50000   1.000
    O3170   O    0.68472   0.31528   0.00000   1.000
    O3171   O    0.50000   0.00000   0.31528   1.000
    O3172   O    0.00000   0.50000   0.68472   1.000
    O3173   O    0.50000   0.31528   0.68472   1.000
    O3174   O    0.00000   0.68472   0.31528   1.000
    O3175   O    0.31528   0.50000   0.00000   1.000
    O3176   O    0.68472   0.00000   0.50000   1.000
    O3177   O    0.68472   0.50000   0.31528   1.000
    O3178   O    0.31528   0.00000   0.68472   1.000
    O3179   O    0.00000   0.31528   0.50000   1.000
    O3180   O    0.50000   0.68472   0.00000   1.000
    O3181   O    0.68472   0.31528   0.50000   1.000
    O3182   O    0.31528   0.68472   0.00000   1.000
    O3183   O    0.50000   0.00000   0.68472   1.000
    O3184   O    0.00000   0.50000   0.31528   1.000
    O3185   O    0.50000   0.68472   0.31528   1.000
    O3186   O    0.00000   0.31528   0.68472   1.000
    O3187   O    0.68472   0.50000   0.00000   1.000
    O3188   O    0.31528   0.00000   0.50000   1.000
    O3189   O    0.31528   0.50000   0.68472   1.000
    O3190   O    0.68472   0.00000   0.31528   1.000
    O3191   O    0.00000   0.68472   0.50000   1.000
    O3192   O    0.50000   0.31528   0.00000   1.000
    Cr3193  Cr   0.39566   0.85434   0.39566   1.000
    Cr3194  Cr   0.85434   0.39566   0.85434   1.000
    Cr3195  Cr   0.39566   0.39566   0.85434   1.000
    Cr3196  Cr   0.85434   0.85434   0.39566   1.000
    Cr3197  Cr   0.85434   0.39566   0.39566   1.000
    Cr3198  Cr   0.39566   0.85434   0.85434   1.000
    Cr3199  Cr   0.60434   0.14566   0.14566   1.000
    Cr3200  Cr   0.14566   0.60434   0.60434   1.000
    Cr3201  Cr   0.60434   0.60434   0.14566   1.000
    Cr3202  Cr   0.14566   0.14566   0.60434   1.000
    Cr3203  Cr   0.14566   0.60434   0.14566   1.000
    Cr3204  Cr   0.60434   0.14566   0.60434   1.000
    O3205   O    0.37392   0.87608   0.37392   1.000
    O3206   O    0.87608   0.37392   0.87608   1.000
    O3207   O    0.37392   0.37392   0.87608   1.000
    O3208   O    0.87608   0.87608   0.37392   1.000
    O3209   O    0.87608   0.37392   0.37392   1.000
    O3210   O    0.37392   0.87608   0.87608   1.000
    O3211   O    0.62608   0.12392   0.12392   1.000
    O3212   O    0.12392   0.62608   0.62608   1.000
    O3213   O    0.62608   0.62608   0.12392   1.000
    O3214   O    0.12392   0.12392   0.62608   1.000
    O3215   O    0.12392   0.62608   0.12392   1.000
    O3216   O    0.62608   0.12392   0.62608   1.000
    Cr3217  Cr   0.33652   0.88695   0.38958   1.000
    Cr3218  Cr   0.88695   0.33652   0.88695   1.000
    Cr3219  Cr   0.38958   0.88695   0.33652   1.000
    Cr3220  Cr   0.88695   0.38958   0.88695   1.000
    Cr3221  Cr   0.38958   0.33652   0.88695   1.000
    Cr3222  Cr   0.88695   0.88695   0.33652   1.000
    Cr3223  Cr   0.33652   0.38958   0.88695   1.000
    Cr3224  Cr   0.88695   0.88695   0.38958   1.000
    Cr3225  Cr   0.88695   0.38958   0.33652   1.000
    Cr3226  Cr   0.33652   0.88695   0.88695   1.000
    Cr3227  Cr   0.88695   0.33652   0.38958   1.000
    Cr3228  Cr   0.38958   0.88695   0.88695   1.000
    Cr3229  Cr   0.66348   0.11305   0.11305   1.000
    Cr3230  Cr   0.11305   0.66348   0.61042   1.000
    Cr3231  Cr   0.61042   0.11305   0.11305   1.000
    Cr3232  Cr   0.11305   0.61042   0.66348   1.000
    Cr3233  Cr   0.61042   0.66348   0.11305   1.000
    Cr3234  Cr   0.11305   0.11305   0.61042   1.000
    Cr3235  Cr   0.66348   0.61042   0.11305   1.000
    Cr3236  Cr   0.11305   0.11305   0.66348   1.000
    Cr3237  Cr   0.11305   0.61042   0.11305   1.000
    Cr3238  Cr   0.66348   0.11305   0.61042   1.000
    Cr3239  Cr   0.11305   0.66348   0.11305   1.000
    Cr3240  Cr   0.61042   0.11305   0.66348   1.000
    Cr3241  Cr   0.29958   0.76823   0.29958   1.000
    Cr3242  Cr   0.76823   0.29958   0.13261   1.000
    Cr3243  Cr   0.29958   0.13261   0.29958   1.000
    Cr3244  Cr   0.13261   0.29958   0.76823   1.000
    Cr3245  Cr   0.29958   0.29958   0.76823   1.000
    Cr3246  Cr   0.13261   0.76823   0.29958   1.000
    Cr3247  Cr   0.29958   0.29958   0.13261   1.000
    Cr3248  Cr   0.76823   0.13261   0.29958   1.000
    Cr3249  Cr   0.76823   0.29958   0.29958   1.000
    Cr3250  Cr   0.29958   0.13261   0.76823   1.000
    Cr3251  Cr   0.13261   0.29958   0.29958   1.000
    Cr3252  Cr   0.29958   0.76823   0.13261   1.000
    Cr3253  Cr   0.70042   0.23177   0.86739   1.000
    Cr3254  Cr   0.23177   0.70042   0.70042   1.000
    Cr3255  Cr   0.70042   0.86739   0.23177   1.000
    Cr3256  Cr   0.86739   0.70042   0.70042   1.000
    Cr3257  Cr   0.70042   0.70042   0.86739   1.000
    Cr3258  Cr   0.86739   0.23177   0.70042   1.000
    Cr3259  Cr   0.70042   0.70042   0.23177   1.000
    Cr3260  Cr   0.23177   0.86739   0.70042   1.000
    Cr3261  Cr   0.23177   0.70042   0.86739   1.000
    Cr3262  Cr   0.70042   0.86739   0.70042   1.000
    Cr3263  Cr   0.86739   0.70042   0.23177   1.000
    Cr3264  Cr   0.70042   0.23177   0.70042   1.000
    O3265   O    0.29467   0.80304   0.29467   1.000
    O3266   O    0.80304   0.29467   0.10762   1.000
    O3267   O    0.29467   0.10762   0.29467   1.000
    O3268   O    0.10762   0.29467   0.80304   1.000
    O3269   O    0.29467   0.29467   0.80304   1.000
    O3270   O    0.10762   0.80304   0.29467   1.000
    O3271   O    0.29467   0.29467   0.10762   1.000
    O3272   O    0.80304   0.10762   0.29467   1.000
    O3273   O    0.80304   0.29467   0.29467   1.000
    O3274   O    0.29467   0.10762   0.80304   1.000
    O3275   O    0.10762   0.29467   0.29467   1.000
    O3276   O    0.29467   0.80304   0.10762   1.000
    O3277   O    0.70533   0.19696   0.89238   1.000
    O3278   O    0.19696   0.70533   0.70533   1.000
    O3279   O    0.70533   0.89238   0.19696   1.000
    O3280   O    0.89238   0.70533   0.70533   1.000
    O3281   O    0.70533   0.70533   0.89238   1.000
    O3282   O    0.89238   0.19696   0.70533   1.000
    O3283   O    0.70533   0.70533   0.19696   1.000
    O3284   O    0.19696   0.89238   0.70533   1.000
    O3285   O    0.19696   0.70533   0.89238   1.000
    O3286   O    0.70533   0.89238   0.70533   1.000
    O3287   O    0.89238   0.70533   0.19696   1.000
    O3288   O    0.70533   0.19696   0.70533   1.000
    C3289   C    0.18268   0.02140   0.18268   1.000
    C3290   C    0.02140   0.18268   0.11324   1.000
    C3291   C    0.18268   0.11324   0.18268   1.000
    C3292   C    0.11324   0.18268   0.02140   1.000
    C3293   C    0.18268   0.18268   0.02140   1.000
    C3294   C    0.11324   0.02140   0.18268   1.000
    C3295   C    0.18268   0.18268   0.11324   1.000
    C3296   C    0.02140   0.11324   0.18268   1.000
    C3297   C    0.02140   0.18268   0.18268   1.000
    C3298   C    0.18268   0.11324   0.02140   1.000
    C3299   C    0.11324   0.18268   0.18268   1.000
    C3300   C    0.18268   0.02140   0.11324   1.000
    C3301   C    0.81732   0.97860   0.88676   1.000
    C3302   C    0.97860   0.81732   0.81732   1.000
    C3303   C    0.81732   0.88676   0.97860   1.000
    C3304   C    0.88676   0.81732   0.81732   1.000
    C3305   C    0.81732   0.81732   0.88676   1.000
    C3306   C    0.88676   0.97860   0.81732   1.000
    C3307   C    0.81732   0.81732   0.97860   1.000
    C3308   C    0.97860   0.88676   0.81732   1.000
    C3309   C    0.97860   0.81732   0.88676   1.000
    C3310   C    0.81732   0.88676   0.81732   1.000
    C3311   C    0.88676   0.81732   0.97860   1.000
    C3312   C    0.81732   0.97860   0.81732   1.000
    C3313   C    0.18369   0.04386   0.18369   1.000
    C3314   C    0.04386   0.18369   0.08876   1.000
    C3315   C    0.18369   0.08876   0.18369   1.000
    C3316   C    0.08876   0.18369   0.04386   1.000
    C3317   C    0.18369   0.18369   0.04386   1.000
    C3318   C    0.08876   0.04386   0.18369   1.000
    C3319   C    0.18369   0.18369   0.08876   1.000
    C3320   C    0.04386   0.08876   0.18369   1.000
    C3321   C    0.04386   0.18369   0.18369   1.000
    C3322   C    0.18369   0.08876   0.04386   1.000
    C3323   C    0.08876   0.18369   0.18369   1.000
    C3324   C    0.18369   0.04386   0.08876   1.000
    C3325   C    0.81631   0.95614   0.91124   1.000
    C3326   C    0.95614   0.81631   0.81631   1.000
    C3327   C    0.81631   0.91124   0.95614   1.000
    C3328   C    0.91124   0.81631   0.81631   1.000
    C3329   C    0.81631   0.81631   0.91124   1.000
    C3330   C    0.91124   0.95614   0.81631   1.000
    C3331   C    0.81631   0.81631   0.95614   1.000
    C3332   C    0.95614   0.91124   0.81631   1.000
    C3333   C    0.95614   0.81631   0.91124   1.000
    C3334   C    0.81631   0.91124   0.81631   1.000
    C3335   C    0.91124   0.81631   0.95614   1.000
    C3336   C    0.81631   0.95614   0.81631   1.000
    C3337   C    0.26810   0.86132   0.26810   1.000
    C3338   C    0.86132   0.26810   0.10248   1.000
    C3339   C    0.26810   0.10248   0.26810   1.000
    C3340   C    0.10248   0.26810   0.86132   1.000
    C3341   C    0.26810   0.26810   0.86132   1.000
    C3342   C    0.10248   0.86132   0.26810   1.000
    C3343   C    0.26810   0.26810   0.10248   1.000
    C3344   C    0.86132   0.10248   0.26810   1.000
    C3345   C    0.86132   0.26810   0.26810   1.000
    C3346   C    0.26810   0.10248   0.86132   1.000
    C3347   C    0.10248   0.26810   0.26810   1.000
    C3348   C    0.26810   0.86132   0.10248   1.000
    C3349   C    0.73190   0.13868   0.89752   1.000
    C3350   C    0.13868   0.73190   0.73190   1.000
    C3351   C    0.73190   0.89752   0.13868   1.000
    C3352   C    0.89752   0.73190   0.73190   1.000
    C3353   C    0.73190   0.73190   0.89752   1.000
    C3354   C    0.89752   0.13868   0.73190   1.000
    C3355   C    0.73190   0.73190   0.13868   1.000
    C3356   C    0.13868   0.89752   0.73190   1.000
    C3357   C    0.13868   0.73190   0.89752   1.000
    C3358   C    0.73190   0.89752   0.73190   1.000
    C3359   C    0.89752   0.73190   0.13868   1.000
    C3360   C    0.73190   0.13868   0.73190   1.000
    C3361   C    0.25271   0.88565   0.25271   1.000
    C3362   C    0.88565   0.25271   0.10893   1.000
    C3363   C    0.25271   0.10893   0.25271   1.000
    C3364   C    0.10893   0.25271   0.88565   1.000
    C3365   C    0.25271   0.25271   0.88565   1.000
    C3366   C    0.10893   0.88565   0.25271   1.000
    C3367   C    0.25271   0.25271   0.10893   1.000
    C3368   C    0.88565   0.10893   0.25271   1.000
    C3369   C    0.88565   0.25271   0.25271   1.000
    C3370   C    0.25271   0.10893   0.88565   1.000
    C3371   C    0.10893   0.25271   0.25271   1.000
    C3372   C    0.25271   0.88565   0.10893   1.000
    C3373   C    0.74729   0.11435   0.89107   1.000
    C3374   C    0.11435   0.74729   0.74729   1.000
    C3375   C    0.74729   0.89107   0.11435   1.000
    C3376   C    0.89107   0.74729   0.74729   1.000
    C3377   C    0.74729   0.74729   0.89107   1.000
    C3378   C    0.89107   0.11435   0.74729   1.000
    C3379   C    0.74729   0.74729   0.11435   1.000
    C3380   C    0.11435   0.89107   0.74729   1.000
    C3381   C    0.11435   0.74729   0.89107   1.000
    C3382   C    0.74729   0.89107   0.74729   1.000
    C3383   C    0.89107   0.74729   0.11435   1.000
    C3384   C    0.74729   0.11435   0.74729   1.000
    C3385   C    0.20624   0.95116   0.20624   1.000
    C3386   C    0.95116   0.20624   0.13636   1.000
    C3387   C    0.20624   0.13636   0.20624   1.000
    C3388   C    0.13636   0.20624   0.95116   1.000
    C3389   C    0.20624   0.20624   0.95116   1.000
    C3390   C    0.13636   0.95116   0.20624   1.000
    C3391   C    0.20624   0.20624   0.13636   1.000
    C3392   C    0.95116   0.13636   0.20624   1.000
    C3393   C    0.95116   0.20624   0.20624   1.000
    C3394   C    0.20624   0.13636   0.95116   1.000
    C3395   C    0.13636   0.20624   0.20624   1.000
    C3396   C    0.20624   0.95116   0.13636   1.000
    C3397   C    0.79376   0.04884   0.86364   1.000
    C3398   C    0.04884   0.79376   0.79376   1.000
    C3399   C    0.79376   0.86364   0.04884   1.000
    C3400   C    0.86364   0.79376   0.79376   1.000
    C3401   C    0.79376   0.79376   0.86364   1.000
    C3402   C    0.86364   0.04884   0.79376   1.000
    C3403   C    0.79376   0.79376   0.04884   1.000
    C3404   C    0.04884   0.86364   0.79376   1.000
    C3405   C    0.04884   0.79376   0.86364   1.000
    C3406   C    0.79376   0.86364   0.79376   1.000
    C3407   C    0.86364   0.79376   0.04884   1.000
    C3408   C    0.79376   0.04884   0.79376   1.000
    C3409   C    0.22237   0.92925   0.22237   1.000
    C3410   C    0.92925   0.22237   0.12601   1.000
    C3411   C    0.22237   0.12601   0.22237   1.000
    C3412   C    0.12601   0.22237   0.92925   1.000
    C3413   C    0.22237   0.22237   0.92925   1.000
    C3414   C    0.12601   0.92925   0.22237   1.000
    C3415   C    0.22237   0.22237   0.12601   1.000
    C3416   C    0.92925   0.12601   0.22237   1.000
    C3417   C    0.92925   0.22237   0.22237   1.000
    C3418   C    0.22237   0.12601   0.92925   1.000
    C3419   C    0.12601   0.22237   0.22237   1.000
    C3420   C    0.22237   0.92925   0.12601   1.000
    C3421   C    0.77763   0.07075   0.87399   1.000
    C3422   C    0.07075   0.77763   0.77763   1.000
    C3423   C    0.77763   0.87399   0.07075   1.000
    C3424   C    0.87399   0.77763   0.77763   1.000
    C3425   C    0.77763   0.77763   0.87399   1.000
    C3426   C    0.87399   0.07075   0.77763   1.000
    C3427   C    0.77763   0.77763   0.07075   1.000
    C3428   C    0.07075   0.87399   0.77763   1.000
    C3429   C    0.07075   0.77763   0.87399   1.000
    C3430   C    0.77763   0.87399   0.77763   1.000
    C3431   C    0.87399   0.77763   0.07075   1.000
    C3432   C    0.77763   0.07075   0.77763   1.000
    C3433   C    0.30763   0.83664   0.30763   1.000
    C3434   C    0.83664   0.30763   0.04810   1.000
    C3435   C    0.30763   0.04810   0.30763   1.000
    C3436   C    0.04810   0.30763   0.83664   1.000
    C3437   C    0.30763   0.30763   0.83664   1.000
    C3438   C    0.04810   0.83664   0.30763   1.000
    C3439   C    0.30763   0.30763   0.04810   1.000
    C3440   C    0.83664   0.04810   0.30763   1.000
    C3441   C    0.83664   0.30763   0.30763   1.000
    C3442   C    0.30763   0.04810   0.83664   1.000
    C3443   C    0.04810   0.30763   0.30763   1.000
    C3444   C    0.30763   0.83664   0.04810   1.000
    C3445   C    0.69237   0.16336   0.95190   1.000
    C3446   C    0.16336   0.69237   0.69237   1.000
    C3447   C    0.69237   0.95190   0.16336   1.000
    C3448   C    0.95190   0.69237   0.69237   1.000
    C3449   C    0.69237   0.69237   0.95190   1.000
    C3450   C    0.95190   0.16336   0.69237   1.000
    C3451   C    0.69237   0.69237   0.16336   1.000
    C3452   C    0.16336   0.95190   0.69237   1.000
    C3453   C    0.16336   0.69237   0.95190   1.000
    C3454   C    0.69237   0.95190   0.69237   1.000
    C3455   C    0.95190   0.69237   0.16336   1.000
    C3456   C    0.69237   0.16336   0.69237   1.000
    C3457   C    0.31714   0.84688   0.31714   1.000
    C3458   C    0.84688   0.31714   0.01884   1.000
    C3459   C    0.31714   0.01884   0.31714   1.000
    C3460   C    0.01884   0.31714   0.84688   1.000
    C3461   C    0.31714   0.31714   0.84688   1.000
    C3462   C    0.01884   0.84688   0.31714   1.000
    C3463   C    0.31714   0.31714   0.01884   1.000
    C3464   C    0.84688   0.01884   0.31714   1.000
    C3465   C    0.84688   0.31714   0.31714   1.000
    C3466   C    0.31714   0.01884   0.84688   1.000
    C3467   C    0.01884   0.31714   0.31714   1.000
    C3468   C    0.31714   0.84688   0.01884   1.000
    C3469   C    0.68286   0.15312   0.98116   1.000
    C3470   C    0.15312   0.68286   0.68286   1.000
    C3471   C    0.68286   0.98116   0.15312   1.000
    C3472   C    0.98116   0.68286   0.68286   1.000
    C3473   C    0.68286   0.68286   0.98116   1.000
    C3474   C    0.98116   0.15312   0.68286   1.000
    C3475   C    0.68286   0.68286   0.15312   1.000
    C3476   C    0.15312   0.98116   0.68286   1.000
    C3477   C    0.15312   0.68286   0.98116   1.000
    C3478   C    0.68286   0.98116   0.68286   1.000
    C3479   C    0.98116   0.68286   0.15312   1.000
    C3480   C    0.68286   0.15312   0.68286   1.000
    C3481   C    0.34553   0.87506   0.34553   1.000
    C3482   C    0.87506   0.34553   0.93388   1.000
    C3483   C    0.34553   0.93388   0.34553   1.000
    C3484   C    0.93388   0.34553   0.87506   1.000
    C3485   C    0.34553   0.34553   0.87506   1.000
    C3486   C    0.93388   0.87506   0.34553   1.000
    C3487   C    0.34553   0.34553   0.93388   1.000
    C3488   C    0.87506   0.93388   0.34553   1.000
    C3489   C    0.87506   0.34553   0.34553   1.000
    C3490   C    0.34553   0.93388   0.87506   1.000
    C3491   C    0.93388   0.34553   0.34553   1.000
    C3492   C    0.34553   0.87506   0.93388   1.000
    C3493   C    0.65447   0.12494   0.06612   1.000
    C3494   C    0.12494   0.65447   0.65447   1.000
    C3495   C    0.65447   0.06612   0.12494   1.000
    C3496   C    0.06612   0.65447   0.65447   1.000
    C3497   C    0.65447   0.65447   0.06612   1.000
    C3498   C    0.06612   0.12494   0.65447   1.000
    C3499   C    0.65447   0.65447   0.12494   1.000
    C3500   C    0.12494   0.06612   0.65447   1.000
    C3501   C    0.12494   0.65447   0.06612   1.000
    C3502   C    0.65447   0.06612   0.65447   1.000
    C3503   C    0.06612   0.65447   0.12494   1.000
    C3504   C    0.65447   0.12494   0.65447   1.000
    C3505   C    0.33539   0.86612   0.33539   1.000
    C3506   C    0.86612   0.33539   0.96310   1.000
    C3507   C    0.33539   0.96310   0.33539   1.000
    C3508   C    0.96310   0.33539   0.86612   1.000
    C3509   C    0.33539   0.33539   0.86612   1.000
    C3510   C    0.96310   0.86612   0.33539   1.000
    C3511   C    0.33539   0.33539   0.96310   1.000
    C3512   C    0.86612   0.96310   0.33539   1.000
    C3513   C    0.86612   0.33539   0.33539   1.000
    C3514   C    0.33539   0.96310   0.86612   1.000
    C3515   C    0.96310   0.33539   0.33539   1.000
    C3516   C    0.33539   0.86612   0.96310   1.000
    C3517   C    0.66461   0.13388   0.03690   1.000
    C3518   C    0.13388   0.66461   0.66461   1.000
    C3519   C    0.66461   0.03690   0.13388   1.000
    C3520   C    0.03690   0.66461   0.66461   1.000
    C3521   C    0.66461   0.66461   0.03690   1.000
    C3522   C    0.03690   0.13388   0.66461   1.000
    C3523   C    0.66461   0.66461   0.13388   1.000
    C3524   C    0.13388   0.03690   0.66461   1.000
    C3525   C    0.13388   0.66461   0.03690   1.000
    C3526   C    0.66461   0.03690   0.66461   1.000
    C3527   C    0.03690   0.66461   0.13388   1.000
    C3528   C    0.66461   0.13388   0.66461   1.000
    O3529   O    0.17130   0.98611   0.17130   1.000
    O3530   O    0.98611   0.17130   0.17129   1.000
    O3531   O    0.17130   0.17129   0.17130   1.000
    O3532   O    0.17129   0.17130   0.98611   1.000
    O3533   O    0.82870   0.01389   0.82871   1.000
    O3534   O    0.01389   0.82870   0.82870   1.000
    O3535   O    0.82870   0.82871   0.01389   1.000
    O3536   O    0.82871   0.82870   0.82870   1.000
